@<TRIPOS>MOLECULE
RES
30252 31501 1 0 1
SMALL
NO_CHARGES
@<TRIPOS>CRYSIN
 1497.0219  1615.3604   496.2706    90.0000    90.0000    90.0000 1 1
@<TRIPOS>ATOM
       1 C0           9.7771     9.6221     8.7739 C0            1 RES     
       2 C1           8.7890    10.1868     9.8026 C1            1 RES     
       3 C1           9.3992    10.7087    10.8897 C1            1 RES     
       4 S2           8.3101    11.3428    11.9884 S2            1 RES     
       5 C1           6.9702    10.9366    11.0137 C1            1 RES     
       6 C1           7.3987    10.3100     9.8378 C1            1 RES     
       7 C1          10.7991    10.5479    10.7311 C1            1 RES     
       8 C1          11.0652     9.9038     9.5571 C1            1 RES     
       9 C1          12.4324     9.6816     9.3634 C1            1 RES     
      10 C1          13.1959    10.1779    10.4511 C1            1 RES     
      11 S2          12.1658    10.9110    11.5983 S2            1 RES     
      12 H3           6.7375     9.9642     9.0555 H3            1 RES     
      13 H3          12.8296     9.1808     8.4933 H3            1 RES     
      14 N4          16.6459    10.8514    11.8152 N4            1 RES     
      15 C1          15.3067    10.9420    11.5751 C1            1 RES     
      16 C1          14.6639    10.0696    10.6663 C1            1 RES     
      17 C1          15.4622     9.0959    10.0393 C1            1 RES     
      18 N4          14.9978     8.1537     9.1802 N4            1 RES     
      19 S2          16.3595     7.2872     8.8240 S2            1 RES     
      20 N4          17.5414     8.0321     9.7047 N4            1 RES     
      21 C1          16.8543     9.0195    10.3279 C1            1 RES     
      22 C1          17.4310     9.9159    11.2175 C1            1 RES     
      23 H5          14.7491    11.7114    12.0914 H5            1 RES     
      24 C0           9.6241    10.6023     7.5485 C0            1 RES     
      25 C0          10.5316    10.7331     6.2748 C0            1 RES     
      26 C0          10.3156    12.1501     5.6277 C0            1 RES     
      27 C0           9.0305    12.4488     4.7999 C0            1 RES     
      28 C0           7.6632    12.4766     5.5142 C0            1 RES     
      29 C0           7.5565    13.4407     6.7114 C0            1 RES     
      30 C0           7.7565    14.9118     6.3238 C0            1 RES     
      31 C0           7.5830    15.8216     7.5380 C0            1 RES     
      32 C0          10.3442     9.6698     5.1551 C0            1 RES     
      33 C0          11.1374     8.3785     5.3333 C0            1 RES     
      34 C0          10.7747     7.3644     4.2328 C0            1 RES     
      35 C0          11.5117     6.0281     4.4138 C0            1 RES     
      36 C0          10.9551     4.9659     3.4498 C0            1 RES     
      37 C0          11.5031     3.5493     3.7037 C0            1 RES     
      38 C0          11.0439     2.9713     5.0573 C0            1 RES     
      39 C0          11.4991     1.5265     5.2366 C0            1 RES     
      40 H6           8.5794    10.5157     7.2183 H6            1 RES     
      41 H6           9.7463    11.5970     8.0311 H6            1 RES     
      42 H6          11.5930    10.7506     6.6086 H6            1 RES     
      43 H6          11.1521    12.2868     4.9058 H6            1 RES     
      44 H6          10.4578    12.9453     6.3907 H6            1 RES     
      45 H6           8.9596    11.7281     3.9582 H6            1 RES     
      46 H6           9.1778    13.4470     4.3356 H6            1 RES     
      47 H6           7.3835    11.4587     5.8322 H6            1 RES     
      48 H6           6.8920    12.7639     4.7665 H6            1 RES     
      49 H6           8.2842    13.1651     7.4967 H6            1 RES     
      50 H6           6.5381    13.3270     7.1437 H6            1 RES     
      51 H6           8.7763    15.0675     5.9149 H6            1 RES     
      52 H6           7.0092    15.1971     5.5519 H6            1 RES     
      53 H6           6.5638    15.7075     7.9653 H6            1 RES     
      54 H6           7.7241    16.8802     7.2342 H6            1 RES     
      55 H6           8.3344    15.5717     8.3174 H6            1 RES     
      56 H6          10.7292    10.0776     4.1932 H6            1 RES     
      57 H6           9.2563     9.4765     5.0262 H6            1 RES     
      58 H6          12.2273     8.5977     5.3182 H6            1 RES     
      59 H6          10.8891     7.9531     6.2961 H6            1 RES     
      60 H6           9.6798     7.1769     4.3040 H6            1 RES     
      61 H6          10.9968     7.7779     3.2249 H6            1 RES     
      62 H6          12.6051     6.1586     4.2641 H6            1 RES     
      63 H6          11.3620     5.6905     5.4467 H6            1 RES     
      64 H6           9.8468     4.9177     3.5366 H6            1 RES     
      65 H6          11.2026     5.2731     2.4098 H6            1 RES     
      66 H6          12.6121     3.5504     3.6376 H6            1 RES     
      67 H6          11.1053     2.8918     2.9000 H6            1 RES     
      68 H6           9.9330     2.9971     5.1145 H6            1 RES     
      69 H6          11.4602     3.5595     5.8962 H6            1 RES     
      70 H6          11.1436     1.1467     6.2162 H6            1 RES     
      71 H6          11.0777     0.8852     4.4331 H6            1 RES     
      72 H6          12.6091     1.4666     5.2116 H6            1 RES     
      73 C0           9.3417     8.1235     8.5125 C0            1 RES     
      74 C0          10.2857     6.8793     8.6110 C0            1 RES     
      75 C0           9.7784     5.7347     7.6663 C0            1 RES     
      76 C0           8.5329     4.8874     8.0258 C0            1 RES     
      77 C0           7.1514     5.5709     7.9705 C0            1 RES     
      78 C0           6.7855     6.2370     6.6273 C0            1 RES     
      79 C0           6.7808     5.2727     5.4340 C0            1 RES     
      80 C0           6.3586     5.9986     4.1581 C0            1 RES     
      81 C0          10.5126     6.2596    10.0212 C0            1 RES     
      82 C0          11.3058     7.1247    10.9861 C0            1 RES     
      83 C0          11.6529     6.3912    12.2823 C0            1 RES     
      84 C0          12.4933     7.3074    13.1791 C0            1 RES     
      85 C0          12.8731     6.6132    14.4926 C0            1 RES     
      86 C0          13.7724     7.4829    15.3876 C0            1 RES     
      87 C0          13.0895     8.7780    15.8554 C0            1 RES     
      88 C0          13.9961     9.5680    16.7932 C0            1 RES     
      89 H6           8.4447     7.8767     9.1066 H6            1 RES     
      90 H6           8.9687     8.1686     7.4773 H6            1 RES     
      91 H6          11.2760     7.1712     8.2100 H6            1 RES     
      92 H6          10.6131     5.0026     7.6091 H6            1 RES     
      93 H6           9.6225     6.1243     6.6462 H6            1 RES     
      94 H6           8.6694     4.4216     9.0229 H6            1 RES     
      95 H6           8.5036     4.0464     7.3000 H6            1 RES     
      96 H6           7.0662     6.3174     8.7782 H6            1 RES     
      97 H6           6.3868     4.7949     8.1919 H6            1 RES     
      98 H6           7.4755     7.0690     6.4024 H6            1 RES     
      99 H6           5.7678     6.6721     6.7380 H6            1 RES     
     100 H6           7.7971     4.8557     5.2733 H6            1 RES     
     101 H6           6.0726     4.4387     5.6285 H6            1 RES     
     102 H6           5.3344     6.4146     4.2710 H6            1 RES     
     103 H6           6.3627     5.2900     3.3039 H6            1 RES     
     104 H6           7.0634     6.8285     3.9342 H6            1 RES     
     105 H6          11.1113     5.3317     9.8818 H6            1 RES     
     106 H6           9.5416     5.9806    10.4848 H6            1 RES     
     107 H6          12.2623     7.3974    10.4974 H6            1 RES     
     108 H6          10.7046     8.0119    11.2439 H6            1 RES     
     109 H6          10.7188     6.0965    12.8077 H6            1 RES     
     110 H6          12.2393     5.4747    12.0460 H6            1 RES     
     111 H6          13.4234     7.5960    12.6400 H6            1 RES     
     112 H6          11.9012     8.2218    13.3902 H6            1 RES     
     113 H6          11.9527     6.3324    15.0495 H6            1 RES     
     114 H6          13.4327     5.6823    14.2527 H6            1 RES     
     115 H6          14.7101     7.7291    14.8419 H6            1 RES     
     116 H6          14.0401     6.8796    16.2826 H6            1 RES     
     117 H6          12.1475     8.5296    16.3906 H6            1 RES     
     118 H6          12.8511     9.4274    14.9877 H6            1 RES     
     119 H6          13.4782    10.4962    17.1147 H6            1 RES     
     120 H6          14.2387     8.9652    17.6940 H6            1 RES     
     121 H6          14.9378     9.8471    16.2740 H6            1 RES     
     122 C0          22.8067     9.7506    10.6777 C0            1 RES     
     123 C1          21.3725     9.7663    11.2220 C1            1 RES     
     124 C1          21.3200     9.7540    12.5724 C1            1 RES     
     125 S2          19.7513     9.7977    13.1492 S2            1 RES     
     126 C1          19.0911     9.8457    11.5769 C1            1 RES     
     127 C1          20.1136     9.8285    10.6214 C1            1 RES     
     128 C1          22.6486     9.7143    13.0664 C1            1 RES     
     129 C1          23.5326     9.6770    12.0266 C1            1 RES     
     130 C1          24.8621     9.5977    12.4536 C1            1 RES     
     131 C1          24.9493     9.5658    13.8691 C1            1 RES     
     132 S2          23.3881     9.6771    14.5508 S2            1 RES     
     133 H3          19.9503     9.8589     9.5531 H3            1 RES     
     134 H3          25.6975     9.5537    11.7711 H3            1 RES     
     135 N4          27.2242     9.6282    16.8754 N4            1 RES     
     136 C1          26.1346     9.7870    16.0711 C1            1 RES     
     137 C1          26.1662     9.4054    14.7096 C1            1 RES     
     138 C1          27.3613     8.8390    14.2306 C1            1 RES     
     139 N4          27.5443     8.3768    12.9679 N4            1 RES     
     140 S2          29.0911     7.7963    13.0164 S2            1 RES     
     141 N4          29.5727     8.0892    14.5687 N4            1 RES     
     142 C1          28.4731     8.6721    15.1041 C1            1 RES     
     143 C1          28.3862     9.0823    16.4276 C1            1 RES     
     144 H5          25.2454    10.2268    16.5016 H5            1 RES     
     145 C0          22.9603    11.1752    10.0199 C0            1 RES     
     146 C0          24.2628    11.8885     9.5123 C0            1 RES     
     147 C0          24.0120    13.4396     9.4458 C0            1 RES     
     148 C0          23.1697    14.0509     8.2870 C0            1 RES     
     149 C0          21.6653    13.7215     8.1934 C0            1 RES     
     150 C0          20.8347    14.0373     9.4522 C0            1 RES     
     151 C0          20.8243    15.5288     9.8123 C0            1 RES     
     152 C0          19.9410    15.7870    11.0310 C0            1 RES     
     153 C0          24.8272    11.4425     8.1332 C0            1 RES     
     154 C0          25.7514    10.2286     8.1608 C0            1 RES     
     155 C0          26.1428     9.8138     6.7305 C0            1 RES     
     156 C0          27.0274     8.5573     6.7157 C0            1 RES     
     157 C0          27.2029     8.0334     5.2797 C0            1 RES     
     158 C0          27.9106     6.6680     5.1993 C0            1 RES     
     159 C0          27.0721     5.5301     5.8151 C0            1 RES     
     160 C0          27.7371     4.1712     5.6202 C0            1 RES     
     161 H6          22.2084    11.2234     9.2198 H6            1 RES     
     162 H6          22.6257    11.8466    10.8412 H6            1 RES     
     163 H6          25.0442    11.7774    10.2967 H6            1 RES     
     164 H6          25.0168    13.9070     9.3388 H6            1 RES     
     165 H6          23.6233    13.8068    10.4198 H6            1 RES     
     166 H6          23.6364    13.7873     7.3146 H6            1 RES     
     167 H6          23.2583    15.1543     8.3791 H6            1 RES     
     168 H6          21.5279    12.6637     7.9147 H6            1 RES     
     169 H6          21.2407    14.2982     7.3429 H6            1 RES     
     170 H6          21.2025    13.4531    10.3157 H6            1 RES     
     171 H6          19.7884    13.7172     9.2525 H6            1 RES     
     172 H6          21.8518    15.8758    10.0472 H6            1 RES     
     173 H6          20.4313    16.1152     8.9536 H6            1 RES     
     174 H6          18.8963    15.4688    10.8268 H6            1 RES     
     175 H6          19.9416    16.8715    11.2692 H6            1 RES     
     176 H6          20.3259    15.2289    11.9112 H6            1 RES     
     177 H6          25.4750    12.2498     7.7229 H6            1 RES     
     178 H6          23.9774    11.3036     7.4288 H6            1 RES     
     179 H6          26.6579    10.4558     8.7632 H6            1 RES     
     180 H6          25.2268     9.4083     8.6314 H6            1 RES     
     181 H6          25.2006     9.5894     6.1820 H6            1 RES     
     182 H6          26.6665    10.6433     6.2072 H6            1 RES     
     183 H6          28.0152     8.7663     7.1800 H6            1 RES     
     184 H6          26.5384     7.7858     7.3231 H6            1 RES     
     185 H6          26.2093     7.9259     4.7906 H6            1 RES     
     186 H6          27.7877     8.7833     4.7026 H6            1 RES     
     187 H6          28.9073     6.7242     5.6869 H6            1 RES     
     188 H6          28.0605     6.4361     4.1221 H6            1 RES     
     189 H6          26.0712     5.5019     5.3300 H6            1 RES     
     190 H6          26.9398     5.6847     6.9021 H6            1 RES     
     191 H6          27.1009     3.3815     6.0695 H6            1 RES     
     192 H6          27.8625     3.9531     4.5380 H6            1 RES     
     193 H6          28.7317     4.1544     6.1170 H6            1 RES     
     194 C0          22.8935     8.5226     9.6835 C0            1 RES     
     195 C0          23.9721     7.3903     9.7401 C0            1 RES     
     196 C0          24.2020     6.7854     8.3115 C0            1 RES     
     197 C0          23.1627     5.8389     7.6616 C0            1 RES     
     198 C0          21.8167     6.4418     7.2102 C0            1 RES     
     199 C0          21.9090     7.6347     6.2354 C0            1 RES     
     200 C0          22.6407     7.3144     4.9255 C0            1 RES     
     201 C0          22.6410     8.5290     3.9992 C0            1 RES     
     202 C0          23.7189     6.2052    10.7177 C0            1 RES     
     203 C0          23.7966     6.5584    12.1935 C0            1 RES     
     204 C0          23.7239     5.3262    13.0963 C0            1 RES     
     205 C0          23.8596     5.7567    14.5612 C0            1 RES     
     206 C0          23.7988     4.5525    15.5086 C0            1 RES     
     207 C0          23.9977     4.9437    16.9829 C0            1 RES     
     208 C0          22.8947     5.8713    17.5170 C0            1 RES     
     209 C0          23.1008     6.1723    18.9977 C0            1 RES     
     210 H6          21.9162     8.0135     9.6185 H6            1 RES     
     211 H6          22.9964     9.0225     8.7076 H6            1 RES     
     212 H6          24.9381     7.8545    10.0194 H6            1 RES     
     213 H6          25.1296     6.1775     8.3901 H6            1 RES     
     214 H6          24.4063     7.5905     7.5857 H6            1 RES     
     215 H6          22.9693     4.9758     8.3305 H6            1 RES     
     216 H6          23.6451     5.4166     6.7539 H6            1 RES     
     217 H6          21.2220     6.7402     8.0900 H6            1 RES     
     218 H6          21.2392     5.6323     6.7132 H6            1 RES     
     219 H6          22.4096     8.4940     6.7150 H6            1 RES     
     220 H6          20.8695     7.9494     5.9953 H6            1 RES     
     221 H6          23.6960     7.0385     5.1327 H6            1 RES     
     222 H6          22.1377     6.4667     4.4125 H6            1 RES     
     223 H6          21.5994     8.8255     3.7503 H6            1 RES     
     224 H6          23.1757     8.2835     3.0581 H6            1 RES     
     225 H6          23.1546     9.3863     4.4860 H6            1 RES     
     226 H6          24.5217     5.4546    10.5418 H6            1 RES     
     227 H6          22.7401     5.7247    10.5019 H6            1 RES     
     228 H6          24.7749     7.0443    12.3801 H6            1 RES     
     229 H6          22.9511     7.2191    12.4454 H6            1 RES     
     230 H6          22.7548     4.8045    12.9408 H6            1 RES     
     231 H6          24.5544     4.6292    12.8427 H6            1 RES     
     232 H6          24.8325     6.2791    14.7016 H6            1 RES     
     233 H6          23.0354     6.4630    14.7914 H6            1 RES     
     234 H6          22.8250     4.0292    15.3899 H6            1 RES     
     235 H6          24.6108     3.8437    15.2337 H6            1 RES     
     236 H6          24.9901     5.4314    17.1054 H6            1 RES     
     237 H6          23.9950     4.0072    17.5825 H6            1 RES     
     238 H6          21.9035     5.3863    17.3832 H6            1 RES     
     239 H6          22.9005     6.8373    16.9708 H6            1 RES     
     240 H6          22.2913     6.8428    19.3558 H6            1 RES     
     241 H6          23.0736     5.2331    19.5899 H6            1 RES     
     242 H6          24.0776     6.6775    19.1557 H6            1 RES     
     243 C0          33.3511     9.3017    18.5532 C0            1 RES     
     244 C1          31.8633     9.0369    18.2892 C1            1 RES     
     245 C1          31.2471     8.4140    19.3182 C1            1 RES     
     246 S2          29.6213     8.1563    19.0251 S2            1 RES     
     247 C1          29.7006     8.8950    17.4894 C1            1 RES     
     248 C1          31.0037     9.3352    17.2302 C1            1 RES     
     249 C1          32.2075     8.1856    20.3361 C1            1 RES     
     250 C1          33.4301     8.6426    19.9358 C1            1 RES     
     251 C1          34.4292     8.4092    20.8862 C1            1 RES     
     252 C1          33.9121     7.7427    22.0267 C1            1 RES     
     253 S2          32.2322     7.4981    21.8455 S2            1 RES     
     254 H3          31.3074     9.8416    16.3246 H3            1 RES     
     255 H3          35.4593     8.6977    20.7400 H3            1 RES     
     256 N4          34.6083     6.4908    25.5145 N4            1 RES     
     257 C1          33.9601     6.9712    24.4153 C1            1 RES     
     258 C1          34.6565     7.2474    23.2157 C1            1 RES     
     259 C1          36.0385     6.9862    23.2024 C1            1 RES     
     260 N4          36.8443     7.1493    22.1228 N4            1 RES     
     261 S2          38.3131     6.6451    22.6889 S2            1 RES     
     262 N4          38.0052     6.2153    24.2535 N4            1 RES     
     263 C1          36.6787     6.4678    24.3637 C1            1 RES     
     264 C1          35.9434     6.2331    25.5177 C1            1 RES     
     265 H5          32.8960     7.1484    24.4902 H5            1 RES     
     266 C0          33.4260    10.8729    18.6609 C0            1 RES     
     267 C0          34.6099    11.7681    19.1707 C0            1 RES     
     268 C0          34.0504    13.1755    19.5944 C0            1 RES     
     269 C0          33.6612    14.2253    18.5116 C0            1 RES     
     270 C0          32.4649    13.9396    17.5801 C0            1 RES     
     271 C0          31.1297    13.6330    18.2855 C0            1 RES     
     272 C0          30.6133    14.7998    19.1377 C0            1 RES     
     273 C0          29.2628    14.4587    19.7638 C0            1 RES     
     274 C0          35.7945    12.0070    18.1913 C0            1 RES     
     275 C0          36.8787    10.9333    18.1944 C0            1 RES     
     276 C0          37.9265    11.2191    17.1029 C0            1 RES     
     277 C0          39.0043    10.1257    17.0370 C0            1 RES     
     278 C0          39.8918    10.3119    15.7940 C0            1 RES     
     279 C0          40.8687     9.1470    15.5487 C0            1 RES     
     280 C0          40.1452     7.8348    15.1857 C0            1 RES     
     281 C0          41.1319     6.7265    14.8323 C0            1 RES     
     282 H6          33.0973    11.2605    17.6864 H6            1 RES     
     283 H6          32.6254    11.0925    19.4012 H6            1 RES     
     284 H6          34.9859    11.3322    20.1229 H6            1 RES     
     285 H6          34.8625    13.6636    20.1789 H6            1 RES     
     286 H6          33.2099    13.0536    20.3110 H6            1 RES     
     287 H6          34.5444    14.4407    17.8741 H6            1 RES     
     288 H6          33.4372    15.1695    19.0521 H6            1 RES     
     289 H6          32.7146    13.1193    16.8870 H6            1 RES     
     290 H6          32.3180    14.8287    16.9288 H6            1 RES     
     291 H6          31.2234    12.7300    18.9164 H6            1 RES     
     292 H6          30.3765    13.4140    17.4970 H6            1 RES     
     293 H6          31.3287    15.0264    19.9551 H6            1 RES     
     294 H6          30.4951    15.7020    18.4991 H6            1 RES     
     295 H6          28.5124    14.2435    18.9733 H6            1 RES     
     296 H6          28.9044    15.3180    20.3689 H6            1 RES     
     297 H6          29.3580    13.5718    20.4263 H6            1 RES     
     298 H6          36.3427    12.9271    18.4955 H6            1 RES     
     299 H6          35.3841    12.1822    17.1723 H6            1 RES     
     300 H6          37.3610    10.8841    19.1950 H6            1 RES     
     301 H6          36.4156     9.9771    17.9925 H6            1 RES     
     302 H6          37.3895    11.2456    16.1282 H6            1 RES     
     303 H6          38.4090    12.2073    17.2666 H6            1 RES     
     304 H6          39.6205    10.1246    17.9618 H6            1 RES     
     305 H6          38.5026     9.1520    16.9784 H6            1 RES     
     306 H6          39.2569    10.4146    14.8859 H6            1 RES     
     307 H6          40.4694    11.2548    15.9145 H6            1 RES     
     308 H6          41.5191     8.9994    16.4372 H6            1 RES     
     309 H6          41.5121     9.4308    14.6873 H6            1 RES     
     310 H6          39.4834     8.0062    14.3078 H6            1 RES     
     311 H6          39.5314     7.4781    16.0337 H6            1 RES     
     312 H6          40.5730     5.8047    14.5712 H6            1 RES     
     313 H6          41.7527     7.0243    13.9604 H6            1 RES     
     314 H6          41.7939     6.5096    15.6990 H6            1 RES     
     315 C0          34.1409     8.6584    17.3424 C0            1 RES     
     316 C0          35.3284     7.6478    17.4746 C0            1 RES     
     317 C0          36.2796     7.7597    16.2326 C0            1 RES     
     318 C0          35.8724     7.1859    14.8530 C0            1 RES     
     319 C0          34.7449     7.8969    14.0771 C0            1 RES     
     320 C0          34.9558     9.4034    13.8171 C0            1 RES     
     321 C0          36.2273     9.7269    13.0218 C0            1 RES     
     322 C0          36.3321    11.2287    12.7634 C0            1 RES     
     323 C0          34.9738     6.1433    17.6617 C0            1 RES     
     324 C0          34.3312     5.7926    18.9932 C0            1 RES     
     325 C0          34.1773     4.2840    19.1911 C0            1 RES     
     326 C0          33.5715     4.0086    20.5721 C0            1 RES     
     327 C0          33.4024     2.5050    20.8215 C0            1 RES     
     328 C0          32.8573     2.1918    22.2254 C0            1 RES     
     329 C0          31.4464     2.7521    22.4658 C0            1 RES     
     330 C0          30.9263     2.3557    23.8434 C0            1 RES     
     331 H6          33.4358     8.2115    16.6202 H6            1 RES     
     332 H6          34.5263     9.5477    16.8195 H6            1 RES     
     333 H6          35.9434     7.9574    18.3421 H6            1 RES     
     334 H6          37.2010     7.2033    16.5109 H6            1 RES     
     335 H6          36.5748     8.8104    16.0729 H6            1 RES     
     336 H6          35.6246     6.1094    14.9511 H6            1 RES     
     337 H6          36.7796     7.2308    14.2127 H6            1 RES     
     338 H6          33.7808     7.7515    14.5931 H6            1 RES     
     339 H6          34.6437     7.3867    13.0946 H6            1 RES     
     340 H6          34.9852     9.9641    14.7677 H6            1 RES     
     341 H6          34.0748     9.7688    13.2447 H6            1 RES     
     342 H6          37.1268     9.4112    13.5908 H6            1 RES     
     343 H6          36.2071     9.1915    12.0482 H6            1 RES     
     344 H6          35.4573    11.5818    12.1762 H6            1 RES     
     345 H6          37.2571    11.4476    12.1905 H6            1 RES     
     346 H6          36.3704    11.7847    13.7252 H6            1 RES     
     347 H6          35.9282     5.5719    17.6246 H6            1 RES     
     348 H6          34.3245     5.7900    16.8315 H6            1 RES     
     349 H6          34.9911     6.1638    19.8023 H6            1 RES     
     350 H6          33.3285     6.2485    19.0344 H6            1 RES     
     351 H6          33.5206     3.8671    18.3971 H6            1 RES     
     352 H6          35.1761     3.7962    19.1273 H6            1 RES     
     353 H6          34.2377     4.4330    21.3563 H6            1 RES     
     354 H6          32.5858     4.5154    20.6242 H6            1 RES     
     355 H6          32.7264     2.0700    20.0535 H6            1 RES     
     356 H6          34.3970     2.0159    20.7274 H6            1 RES     
     357 H6          33.5564     2.5938    22.9918 H6            1 RES     
     358 H6          32.8230     1.0855    22.3336 H6            1 RES     
     359 H6          30.7526     2.3576    21.6922 H6            1 RES     
     360 H6          31.4538     3.8605    22.4123 H6            1 RES     
     361 H6          29.9076     2.7730    23.9892 H6            1 RES     
     362 H6          30.8744     1.2498    23.9327 H6            1 RES     
     363 H6          31.5926     2.7569    24.6367 H6            1 RES     
     364 C0          39.3264     5.5808    29.6826 C0            1 RES     
     365 C1          38.2016     5.4302    28.6503 C1            1 RES     
     366 C1          37.3744     4.3955    28.9179 C1            1 RES     
     367 S2          36.1397     4.2611    27.7986 S2            1 RES     
     368 C1          36.6854     5.6160    26.9172 C1            1 RES     
     369 C1          37.8293     6.1554    27.5168 C1            1 RES     
     370 C1          37.8356     3.7534    30.0951 C1            1 RES     
     371 C1          38.9650     4.3699    30.5515 C1            1 RES     
     372 C1          39.4899     3.7547    31.6926 C1            1 RES     
     373 C1          38.7123     2.6329    32.0790 C1            1 RES     
     374 S2          37.3798     2.4584    31.0262 S2            1 RES     
     375 H3          38.3587     7.0234    27.1492 H3            1 RES     
     376 H3          40.3833     4.1016    32.1897 H3            1 RES     
     377 N4          38.1374    -0.0446    34.6708 N4            1 RES     
     378 C1          37.9236     0.8661    33.6786 C1            1 RES     
     379 C1          38.9756     1.6706    33.1825 C1            1 RES     
     380 C1          40.2507     1.4753    33.7432 C1            1 RES     
     381 N4          41.3743     2.1273    33.3508 N4            1 RES     
     382 S2          42.5369     1.4553    34.3145 S2            1 RES     
     383 N4          41.7059     0.3576    35.2264 N4            1 RES     
     384 C1          40.4402     0.5026    34.7655 C1            1 RES     
     385 C1          39.3637    -0.2453    35.2228 C1            1 RES     
     386 H5          36.9199     0.9659    33.2885 H5            1 RES     
     387 C0          38.9726     6.9348    30.4089 C0            1 RES     
     388 C0          39.5777     7.5295    31.7292 C0            1 RES     
     389 C0          38.5745     8.5800    32.3319 C0            1 RES     
     390 C0          38.4446     9.9968    31.6981 C0            1 RES     
     391 C0          37.8629    10.1359    30.2759 C0            1 RES     
     392 C0          36.4698     9.5131    30.0621 C0            1 RES     
     393 C0          35.3795    10.1563    30.9292 C0            1 RES     
     394 C0          34.0149     9.5383    30.6325 C0            1 RES     
     395 C0          40.9717     8.2124    31.6288 C0            1 RES     
     396 C0          42.1728     7.2784    31.7444 C0            1 RES     
     397 C0          43.4836     8.0508    31.5076 C0            1 RES     
     398 C0          44.7131     7.1302    31.5584 C0            1 RES     
     399 C0          45.9719     7.8786    31.0865 C0            1 RES     
     400 C0          47.2064     6.9732    30.9200 C0            1 RES     
     401 C0          47.0403     5.9508    29.7779 C0            1 RES     
     402 C0          48.3158     5.1449    29.5532 C0            1 RES     
     403 H6          39.0070     7.7136    29.6342 H6            1 RES     
     404 H6          37.9067     6.7776    30.6852 H6            1 RES     
     405 H6          39.6056     6.7188    32.4909 H6            1 RES     
     406 H6          38.9199     8.7694    33.3733 H6            1 RES     
     407 H6          37.5650     8.1281    32.4386 H6            1 RES     
     408 H6          39.4357    10.4973    31.7103 H6            1 RES     
     409 H6          37.7951    10.5891    32.3770 H6            1 RES     
     410 H6          38.5702     9.7237    29.5375 H6            1 RES     
     411 H6          37.7997    11.2198    30.0362 H6            1 RES     
     412 H6          36.4984     8.4248    30.2545 H6            1 RES     
     413 H6          36.1986     9.6572    28.9931 H6            1 RES     
     414 H6          35.6037    10.0051    32.0054 H6            1 RES     
     415 H6          35.3330    11.2468    30.7185 H6            1 RES     
     416 H6          33.7461     9.6867    29.5647 H6            1 RES     
     417 H6          33.2407    10.0226    31.2641 H6            1 RES     
     418 H6          34.0277     8.4501    30.8567 H6            1 RES     
     419 H6          41.1028     8.9078    32.4884 H6            1 RES     
     420 H6          41.0041     8.8201    30.6976 H6            1 RES     
     421 H6          42.1809     6.7931    32.7447 H6            1 RES     
     422 H6          42.0812     6.5066    30.9924 H6            1 RES     
     423 H6          43.4220     8.5029    30.4923 H6            1 RES     
     424 H6          43.6008     8.8689    32.2513 H6            1 RES     
     425 H6          44.8591     6.7252    32.5829 H6            1 RES     
     426 H6          44.5311     6.2771    30.8933 H6            1 RES     
     427 H6          45.7784     8.3663    30.1052 H6            1 RES     
     428 H6          46.2013     8.6780    31.8251 H6            1 RES     
     429 H6          47.4325     6.4547    31.8761 H6            1 RES     
     430 H6          48.0668     7.6304    30.6664 H6            1 RES     
     431 H6          46.7941     6.4855    28.8337 H6            1 RES     
     432 H6          46.2289     5.2353    30.0073 H6            1 RES     
     433 H6          48.1576     4.4284    28.7215 H6            1 RES     
     434 H6          49.1576     5.8189    29.2857 H6            1 RES     
     435 H6          48.5778     4.5748    30.4711 H6            1 RES     
     436 C0          40.6833     5.5728    28.8687 C0            1 RES     
     437 C0          41.9048     4.6390    29.1602 C0            1 RES     
     438 C0          43.2365     5.3222    28.6914 C0            1 RES     
     439 C0          43.6029     5.4252    27.1902 C0            1 RES     
     440 C0          42.7783     6.3842    26.3076 C0            1 RES     
     441 C0          42.7148     7.8499    26.7867 C0            1 RES     
     442 C0          44.0865     8.5269    26.9055 C0            1 RES     
     443 C0          43.9308     9.9852    27.3325 C0            1 RES     
     444 C0          41.8732     3.2049    28.5548 C0            1 RES     
     445 C0          40.8299     2.2755    29.1517 C0            1 RES     
     446 C0          40.9699     0.8374    28.6508 C0            1 RES     
     447 C0          39.9199    -0.0465    29.3335 C0            1 RES     
     448 C0          40.0236    -1.5038    28.8675 C0            1 RES     
     449 C0          39.0258    -2.4304    29.5831 C0            1 RES     
     450 C0          37.5580    -2.0716    29.3018 C0            1 RES     
     451 C0          36.6130    -3.0599    29.9769 C0            1 RES     
     452 H6          40.4801     5.4849    27.7873 H6            1 RES     
     453 H6          41.0307     6.6110    28.9887 H6            1 RES     
     454 H6          42.0003     4.5369    30.2589 H6            1 RES     
     455 H6          44.0556     4.7213    29.1431 H6            1 RES     
     456 H6          43.3126     6.3380    29.1145 H6            1 RES     
     457 H6          43.6006     4.4153    26.7319 H6            1 RES     
     458 H6          44.6566     5.7754    27.1462 H6            1 RES     
     459 H6          41.7515     5.9992    26.1878 H6            1 RES     
     460 H6          43.2283     6.3713    25.2911 H6            1 RES     
     461 H6          42.2037     7.9207    27.7627 H6            1 RES     
     462 H6          42.1013     8.4144    26.0504 H6            1 RES     
     463 H6          44.7058     8.0087    27.6674 H6            1 RES     
     464 H6          44.6094     8.4894    25.9257 H6            1 RES     
     465 H6          43.3319    10.5456    26.5828 H6            1 RES     
     466 H6          44.9301    10.4606    27.4171 H6            1 RES     
     467 H6          43.4237    10.0469    28.3198 H6            1 RES     
     468 H6          42.8586     2.7340    28.7694 H6            1 RES     
     469 H6          41.7423     3.2505    27.4519 H6            1 RES     
     470 H6          40.9747     2.2557    30.2502 H6            1 RES     
     471 H6          39.8280     2.6404    28.8724 H6            1 RES     
     472 H6          40.8324     0.8097    27.5482 H6            1 RES     
     473 H6          41.9856     0.4541    28.8982 H6            1 RES     
     474 H6          40.0681    -0.0075    30.4360 H6            1 RES     
     475 H6          38.9161     0.3593    29.0906 H6            1 RES     
     476 H6          39.8625    -1.5598    27.7689 H6            1 RES     
     477 H6          41.0487    -1.8746    29.0886 H6            1 RES     
     478 H6          39.2156    -2.4025    30.6790 H6            1 RES     
     479 H6          39.2129    -3.4664    29.2249 H6            1 RES     
     480 H6          37.3740    -2.0895    28.2058 H6            1 RES     
     481 H6          37.3236    -1.0590    29.6907 H6            1 RES     
     482 H6          35.5619    -2.7770    29.7570 H6            1 RES     
     483 H6          36.7925    -4.0875    29.5955 H6            1 RES     
     484 H6          36.7628    -3.0457    31.0776 H6            1 RES     
     485 C0          40.7060    -2.6330    39.8826 C0            1 RES     
     486 C1          40.1974    -2.3262    38.4682 C1            1 RES     
     487 C1          39.6070    -3.3887    37.8773 C1            1 RES     
     488 S2          39.0356    -3.0305    36.3474 S2            1 RES     
     489 C1          39.5645    -1.4114    36.4434 C1            1 RES     
     490 C1          40.1810    -1.1755    37.6776 C1            1 RES     
     491 C1          39.6628    -4.4830    38.7774 C1            1 RES     
     492 C1          40.3093    -4.1139    39.9218 C1            1 RES     
     493 C1          40.4295    -5.1664    40.8350 C1            1 RES     
     494 C1          39.8528    -6.3591    40.3278 C1            1 RES     
     495 S2          39.1771    -6.0691    38.7871 S2            1 RES     
     496 H3          40.5933    -0.2233    37.9810 H3            1 RES     
     497 H3          40.9166    -5.0616    41.7928 H3            1 RES     
     498 N4          38.8866    -9.9316    41.0496 N4            1 RES     
     499 C1          38.9046    -8.6758    40.5184 C1            1 RES     
     500 C1          39.8430    -7.7101    40.9506 C1            1 RES     
     501 C1          40.7654    -8.1087    41.9349 C1            1 RES     
     502 N4          41.7587    -7.3243    42.4244 N4            1 RES     
     503 S2          42.5250    -8.3327    43.4864 S2            1 RES     
     504 N4          41.6727    -9.7428    43.3748 N4            1 RES     
     505 C1          40.7281    -9.4339    42.4539 C1            1 RES     
     506 C1          39.7712   -10.3322    42.0012 C1            1 RES     
     507 H5          38.1696    -8.4334    39.7630 H5            1 RES     
     508 C0          39.7668    -1.7623    40.8022 C0            1 RES     
     509 C0          39.5935    -1.8152    42.3611 C0            1 RES     
     510 C0          38.2115    -1.1741    42.7511 C0            1 RES     
     511 C0          38.0304     0.3729    42.7368 C0            1 RES     
     512 C0          38.0929     1.1267    41.3920 C0            1 RES     
     513 C0          37.1146     0.6363    40.3073 C0            1 RES     
     514 C0          35.6411     0.7928    40.7054 C0            1 RES     
     515 C0          34.7217     0.3448    39.5713 C0            1 RES     
     516 C0          40.6917    -1.1291    43.2229 C0            1 RES     
     517 C0          41.9139    -1.9868    43.5375 C0            1 RES     
     518 C0          42.9761    -1.1611    44.2865 C0            1 RES     
     519 C0          44.2475    -1.9768    44.5691 C0            1 RES     
     520 C0          45.3697    -1.0674    45.0992 C0            1 RES     
     521 C0          46.7341    -1.7712    45.2197 C0            1 RES     
     522 C0          47.3169    -2.1701    43.8491 C0            1 RES     
     523 C0          48.7181    -2.7579    43.9822 C0            1 RES     
     524 H6          39.9406    -0.7168    40.5113 H6            1 RES     
     525 H6          38.7556    -2.0517    40.4402 H6            1 RES     
     526 H6          39.4872    -2.8819    42.6597 H6            1 RES     
     527 H6          38.0261    -1.4682    43.8088 H6            1 RES     
     528 H6          37.3916    -1.6483    42.1700 H6            1 RES     
     529 H6          38.7721     0.8362    43.4209 H6            1 RES     
     530 H6          37.0339     0.5792    43.1819 H6            1 RES     
     531 H6          39.1223     1.1092    40.9978 H6            1 RES     
     532 H6          37.8818     2.2001    41.5911 H6            1 RES     
     533 H6          37.3166    -0.4204    40.0527 H6            1 RES     
     534 H6          37.2973     1.2420    39.3925 H6            1 RES     
     535 H6          35.4159     0.1764    41.6002 H6            1 RES     
     536 H6          35.4307     1.8593    40.9378 H6            1 RES     
     537 H6          34.9050     0.9538    38.6603 H6            1 RES     
     538 H6          33.6621     0.4733    39.8770 H6            1 RES     
     539 H6          34.8964    -0.7266    39.3339 H6            1 RES     
     540 H6          40.2759    -0.8948    44.2289 H6            1 RES     
     541 H6          40.9709    -0.1655    42.7425 H6            1 RES     
     542 H6          41.6117    -2.8716    44.1391 H6            1 RES     
     543 H6          42.3366    -2.3370    42.6057 H6            1 RES     
     544 H6          43.2459    -0.3003    43.6344 H6            1 RES     
     545 H6          42.5682    -0.7653    45.2421 H6            1 RES     
     546 H6          44.0363    -2.7979    45.2876 H6            1 RES     
     547 H6          44.5736    -2.4409    43.6302 H6            1 RES     
     548 H6          45.5013    -0.1932    44.4234 H6            1 RES     
     549 H6          45.0665    -0.6834    46.0981 H6            1 RES     
     550 H6          46.6489    -2.6607    45.8797 H6            1 RES     
     551 H6          47.4372    -1.0509    45.6922 H6            1 RES     
     552 H6          47.3756    -1.2721    43.1949 H6            1 RES     
     553 H6          46.6806    -2.9303    43.3589 H6            1 RES     
     554 H6          49.1033    -3.0244    42.9768 H6            1 RES     
     555 H6          49.4069    -2.0168    44.4413 H6            1 RES     
     556 H6          48.6928    -3.6754    44.6098 H6            1 RES     
     557 C0          42.2389    -2.2412    39.9006 C0            1 RES     
     558 C0          43.4043    -3.1776    40.3631 C0            1 RES     
     559 C0          44.6044    -2.3262    40.9058 C0            1 RES     
     560 C0          45.5373    -1.5471    39.9461 C0            1 RES     
     561 C0          44.9637    -0.3117    39.2226 C0            1 RES     
     562 C0          44.3565     0.7770    40.1324 C0            1 RES     
     563 C0          45.3434     1.3583    41.1531 C0            1 RES     
     564 C0          44.6795     2.4618    41.9744 C0            1 RES     
     565 C0          43.9745    -4.1833    39.3202 C0            1 RES     
     566 C0          43.0306    -5.3058    38.9231 C0            1 RES     
     567 C0          43.7074    -6.3583    38.0441 C0            1 RES     
     568 C0          42.7103    -7.4791    37.7286 C0            1 RES     
     569 C0          43.3451    -8.5653    36.8520 C0            1 RES     
     570 C0          42.3898    -9.7379    36.5712 C0            1 RES     
     571 C0          41.1416    -9.3243    35.7754 C0            1 RES     
     572 C0          40.2643   -10.5323    35.4648 C0            1 RES     
     573 H6          42.5414    -1.8352    38.9197 H6            1 RES     
     574 H6          42.2447    -1.3618    40.5636 H6            1 RES     
     575 H6          43.0455    -3.7633    41.2319 H6            1 RES     
     576 H6          45.2710    -3.0475    41.4267 H6            1 RES     
     577 H6          44.2497    -1.6100    41.6661 H6            1 RES     
     578 H6          45.9699    -2.2403    39.1963 H6            1 RES     
     579 H6          46.3933    -1.1909    40.5587 H6            1 RES     
     580 H6          44.2090    -0.6242    38.4812 H6            1 RES     
     581 H6          45.7914     0.1467    38.6390 H6            1 RES     
     582 H6          43.4787     0.3871    40.6768 H6            1 RES     
     583 H6          43.9989     1.5993    39.4741 H6            1 RES     
     584 H6          45.6842     0.5658    41.8520 H6            1 RES     
     585 H6          46.2252     1.7798    40.6243 H6            1 RES     
     586 H6          44.3414     3.2869    41.3112 H6            1 RES     
     587 H6          45.4037     2.8703    42.7096 H6            1 RES     
     588 H6          43.8027     2.0588    42.5261 H6            1 RES     
     589 H6          44.8563    -4.6777    39.7860 H6            1 RES     
     590 H6          44.3176    -3.6469    38.4091 H6            1 RES     
     591 H6          42.6954    -5.8169    39.8475 H6            1 RES     
     592 H6          42.1871    -4.8769    38.3578 H6            1 RES     
     593 H6          44.0620    -5.8876    37.1017 H6            1 RES     
     594 H6          44.5808    -6.7887    38.5841 H6            1 RES     
     595 H6          42.3624    -7.9395    38.6805 H6            1 RES     
     596 H6          41.8400    -7.0303    37.2067 H6            1 RES     
     597 H6          43.6841    -8.1222    35.8903 H6            1 RES     
     598 H6          44.2350    -8.9725    37.3807 H6            1 RES     
     599 H6          42.0837   -10.2042    37.5338 H6            1 RES     
     600 H6          42.9515   -10.4954    35.9819 H6            1 RES     
     601 H6          41.4504    -8.8488    34.8194 H6            1 RES     
     602 H6          40.5311    -8.6026    36.3567 H6            1 RES     
     603 H6          39.3721   -10.2047    34.8904 H6            1 RES     
     604 H6          40.8273   -11.2720    34.8569 H6            1 RES     
     605 H6          39.9245   -11.0140    36.4065 H6            1 RES     
     606 C0          39.5332   -14.5376    45.3886 C0            1 RES     
     607 C1          39.6164   -13.6361    44.1501 C1            1 RES     
     608 C1          39.6040   -14.3297    42.9903 C1            1 RES     
     609 S2          39.6691   -13.3315    41.6506 S2            1 RES     
     610 C1          39.7056   -11.9193    42.6069 C1            1 RES     
     611 C1          39.6642   -12.2530    43.9655 C1            1 RES     
     612 C1          39.5307   -15.7111    43.3017 C1            1 RES     
     613 C1          39.5219   -15.8848    44.6559 C1            1 RES     
     614 C1          39.4894   -17.2334    45.0250 C1            1 RES     
     615 C1          39.4844   -18.0807    43.8872 C1            1 RES     
     616 S2          39.4792   -17.1408    42.4620 S2            1 RES     
     617 H3          39.6693   -11.5317    44.7708 H3            1 RES     
     618 H3          39.4834   -17.5620    46.0534 H3            1 RES     
     619 N4          39.1829   -21.6144    42.6070 N4            1 RES     
     620 C1          39.1257   -20.2542    42.6830 C1            1 RES     
     621 C1          39.5326   -19.5671    43.8503 C1            1 RES     
     622 C1          40.0153   -20.3465    44.9171 C1            1 RES     
     623 N4          40.4887   -19.8458    46.0861 N4            1 RES     
     624 S2          40.9470   -21.2077    46.9030 S2            1 RES     
     625 N4          40.5850   -22.4340    45.8577 N4            1 RES     
     626 C1          40.0773   -21.7637    44.7954 C1            1 RES     
     627 C1          39.6470   -22.3817    43.6291 C1            1 RES     
     628 H5          38.7467   -19.7132    41.8268 H5            1 RES     
     629 C0          38.1153   -14.1985    45.9889 C0            1 RES     
     630 C0          37.3146   -14.9546    47.1071 C0            1 RES     
     631 C0          35.7892   -14.5908    46.9884 C0            1 RES     
     632 C0          35.2694   -13.2092    47.4853 C0            1 RES     
     633 C0          35.7157   -11.9275    46.7514 C0            1 RES     
     634 C0          35.4382   -11.8966    45.2361 C0            1 RES     
     635 C0          33.9446   -11.9707    44.8925 C0            1 RES     
     636 C0          33.7294   -11.8784    43.3834 C0            1 RES     
     637 C0          37.7450   -14.7075    48.5813 C0            1 RES     
     638 C0          38.8832   -15.5866    49.0915 C0            1 RES     
     639 C0          39.2969   -15.1648    50.5135 C0            1 RES     
     640 C0          40.4815   -15.9909    51.0388 C0            1 RES     
     641 C0          41.0207   -15.3941    52.3505 C0            1 RES     
     642 C0          42.3289   -16.0450    52.8369 C0            1 RES     
     643 C0          43.5147   -15.7676    51.8913 C0            1 RES     
     644 C0          44.8221   -16.3199    52.4502 C0            1 RES     
     645 H6          38.1421   -13.1308    46.2482 H6            1 RES     
     646 H6          37.4543   -14.3160    45.1020 H6            1 RES     
     647 H6          37.3485   -16.0431    46.8786 H6            1 RES     
     648 H6          35.2481   -15.3356    47.6146 H6            1 RES     
     649 H6          35.4324   -14.7696    45.9514 H6            1 RES     
     650 H6          35.5169   -13.0885    48.5610 H6            1 RES     
     651 H6          34.1608   -13.2493    47.4296 H6            1 RES     
     652 H6          36.7866   -11.7414    46.9358 H6            1 RES     
     653 H6          35.1917   -11.0653    47.2186 H6            1 RES     
     654 H6          35.9739   -12.7191    44.7274 H6            1 RES     
     655 H6          35.8422   -10.9388    44.8407 H6            1 RES     
     656 H6          33.5145   -12.9301    45.2475 H6            1 RES     
     657 H6          33.4087   -11.1297    45.3835 H6            1 RES     
     658 H6          34.1315   -10.9192    42.9926 H6            1 RES     
     659 H6          32.6433   -11.9262    43.1578 H6            1 RES     
     660 H6          34.2374   -12.7223    42.8693 H6            1 RES     
     661 H6          36.8990   -14.9630    49.2586 H6            1 RES     
     662 H6          37.9640   -13.6246    48.7115 H6            1 RES     
     663 H6          38.5741   -16.6544    49.0756 H6            1 RES     
     664 H6          39.7313   -15.4678    48.4311 H6            1 RES     
     665 H6          39.6048   -14.0962    50.4649 H6            1 RES     
     666 H6          38.4408   -15.2533    51.2174 H6            1 RES     
     667 H6          40.1872   -17.0527    51.1833 H6            1 RES     
     668 H6          41.2753   -15.9727    50.2820 H6            1 RES     
     669 H6          41.2149   -14.3061    52.2212 H6            1 RES     
     670 H6          40.2404   -15.5104    53.1346 H6            1 RES     
     671 H6          42.1857   -17.1385    52.9704 H6            1 RES     
     672 H6          42.5714   -15.6004    53.8268 H6            1 RES     
     673 H6          43.6303   -14.6697    51.7527 H6            1 RES     
     674 H6          43.3477   -16.2383    50.9046 H6            1 RES     
     675 H6          45.6488   -16.0940    51.7461 H6            1 RES     
     676 H6          45.0529   -15.8510    53.4307 H6            1 RES     
     677 H6          44.7516   -17.4223    52.5767 H6            1 RES     
     678 C0          40.7716   -14.1614    46.2988 C0            1 RES     
     679 C0          41.8160   -15.1789    46.8670 C0            1 RES     
     680 C0          42.4316   -14.6377    48.2042 C0            1 RES     
     681 C0          43.4690   -13.4878    48.2050 C0            1 RES     
     682 C0          42.9814   -12.0722    47.8347 C0            1 RES     
     683 C0          41.8058   -11.5268    48.6728 C0            1 RES     
     684 C0          42.0966   -11.4475    50.1772 C0            1 RES     
     685 C0          40.9056   -10.8501    50.9240 C0            1 RES     
     686 C0          42.9960   -15.5910    45.9386 C0            1 RES     
     687 C0          42.6066   -16.4338    44.7358 C0            1 RES     
     688 C0          43.8213   -16.9593    43.9696 C0            1 RES     
     689 C0          43.3505   -17.8387    42.8056 C0            1 RES     
     690 C0          44.5355   -18.3963    42.0079 C0            1 RES     
     691 C0          44.0988   -19.3367    40.8716 C0            1 RES     
     692 C0          43.2478   -18.6365    39.8000 C0            1 RES     
     693 C0          42.9004   -19.5932    38.6644 C0            1 RES     
     694 H6          41.3559   -13.3490    45.8328 H6            1 RES     
     695 H6          40.2862   -13.6770    47.1605 H6            1 RES     
     696 H6          41.2729   -16.1022    47.1485 H6            1 RES     
     697 H6          42.9644   -15.5012    48.6587 H6            1 RES     
     698 H6          41.6288   -14.3511    48.9042 H6            1 RES     
     699 H6          44.3300   -13.7570    47.5600 H6            1 RES     
     700 H6          43.8721   -13.4277    49.2388 H6            1 RES     
     701 H6          42.7111   -12.0328    46.7660 H6            1 RES     
     702 H6          43.8433   -11.3807    47.9560 H6            1 RES     
     703 H6          40.9005   -12.1407    48.5230 H6            1 RES     
     704 H6          41.5774   -10.5041    48.2996 H6            1 RES     
     705 H6          42.2859   -12.4624    50.5856 H6            1 RES     
     706 H6          42.9913   -10.8124    50.3534 H6            1 RES     
     707 H6          40.6956    -9.8223    50.5574 H6            1 RES     
     708 H6          41.1290   -10.8018    52.0100 H6            1 RES     
     709 H6          40.0011   -11.4789    50.7753 H6            1 RES     
     710 H6          43.6861   -16.2223    46.5420 H6            1 RES     
     711 H6          43.5550   -14.6928    45.5974 H6            1 RES     
     712 H6          42.0428   -17.3152    45.1010 H6            1 RES     
     713 H6          42.0078   -15.8150    44.0476 H6            1 RES     
     714 H6          44.4193   -16.1053    43.5842 H6            1 RES     
     715 H6          44.4574   -17.5673    44.6518 H6            1 RES     
     716 H6          42.7519   -18.6876    43.2057 H6            1 RES     
     717 H6          42.7051   -17.2224    42.1462 H6            1 RES     
     718 H6          45.1346   -17.5586    41.5891 H6            1 RES     
     719 H6          45.1852   -18.9782    42.6982 H6            1 RES     
     720 H6          43.5336   -20.1947    41.2981 H6            1 RES     
     721 H6          45.0198   -19.7328    40.3904 H6            1 RES     
     722 H6          43.8105   -17.7732    39.3835 H6            1 RES     
     723 H6          42.2961   -18.2699    40.2374 H6            1 RES     
     724 H6          42.2869   -19.0617    37.9066 H6            1 RES     
     725 H6          43.8262   -19.9650    38.1762 H6            1 RES     
     726 H6          42.3182   -20.4562    39.0524 H6            1 RES     
     727 C0          39.0005   -27.6686    44.5498 C0            1 RES     
     728 C1          39.3847   -26.3029    43.9662 C1            1 RES     
     729 C1          40.0312   -26.3971    42.7831 C1            1 RES     
     730 S2          40.4196   -24.8998    42.1485 S2            1 RES     
     731 C1          39.7098   -24.0722    43.4606 C1            1 RES     
     732 C1          39.1761   -24.9851    44.3776 C1            1 RES     
     733 C1          40.1632   -27.7713    42.4594 C1            1 RES     
     734 C1          39.6219   -28.5387    43.4504 C1            1 RES     
     735 C1          39.7574   -29.9088    43.2044 C1            1 RES     
     736 C1          40.4374   -30.1499    41.9830 C1            1 RES     
     737 S2          40.8146   -28.6675    41.2248 S2            1 RES     
     738 H3          38.6672   -24.7060    45.2897 H3            1 RES     
     739 H3          39.3936   -30.6670    43.8815 H3            1 RES     
     740 N4          41.5575   -32.7286    39.4705 N4            1 RES     
     741 C1          41.1519   -31.5515    40.0265 C1            1 RES     
     742 C1          40.8485   -31.4575    41.4046 C1            1 RES     
     743 C1          41.0025   -32.6238    42.1756 C1            1 RES     
     744 N4          40.8008   -32.6952    43.5157 N4            1 RES     
     745 S2          41.1781   -34.2683    43.8544 S2            1 RES     
     746 N4          41.5970   -34.8973    42.3859 N4            1 RES     
     747 C1          41.4452   -33.8310    41.5642 C1            1 RES     
     748 C1          41.7114   -33.8644    40.2020 C1            1 RES     
     749 H5          41.0557   -30.6906    39.3791 H5            1 RES     
     750 C0          37.4263   -27.6701    44.4622 C0            1 RES     
     751 C0          36.4318   -28.8682    44.6588 C0            1 RES     
     752 C0          35.0630   -28.5250    43.9645 C0            1 RES     
     753 C0          34.0695   -27.5297    44.6340 C0            1 RES     
     754 C0          34.4664   -26.0448    44.7692 C0            1 RES     
     755 C0          34.8599   -25.3384    43.4577 C0            1 RES     
     756 C0          33.7186   -25.2832    42.4336 C0            1 RES     
     757 C0          34.1493   -24.5233    41.1809 C0            1 RES     
     758 C0          36.1232   -29.3047    46.1195 C0            1 RES     
     759 C0          37.1098   -30.2932    46.7342 C0            1 RES     
     760 C0          36.7673   -30.5507    48.2132 C0            1 RES     
     761 C0          37.7756   -31.4978    48.8826 C0            1 RES     
     762 C0          37.5479   -31.5465    50.4035 C0            1 RES     
     763 C0          38.6390   -32.3169    51.1700 C0            1 RES     
     764 C0          40.0105   -31.6149    51.1116 C0            1 RES     
     765 C0          41.0468   -32.3303    51.9726 C0            1 RES     
     766 H6          37.0859   -26.8348    45.0901 H6            1 RES     
     767 H6          37.2532   -27.3889    43.4000 H6            1 RES     
     768 H6          36.8171   -29.7346    44.0765 H6            1 RES     
     769 H6          34.5015   -29.4845    43.9057 H6            1 RES     
     770 H6          35.2341   -28.2236    42.9087 H6            1 RES     
     771 H6          33.8004   -27.9028    45.6446 H6            1 RES     
     772 H6          33.1342   -27.5655    44.0361 H6            1 RES     
     773 H6          35.2795   -25.9377    45.5061 H6            1 RES     
     774 H6          33.6053   -25.4992    45.2133 H6            1 RES     
     775 H6          35.7394   -25.8294    43.0020 H6            1 RES     
     776 H6          35.1531   -24.2963    43.7130 H6            1 RES     
     777 H6          33.4201   -26.3089    42.1333 H6            1 RES     
     778 H6          32.8420   -24.7676    42.8824 H6            1 RES     
     779 H6          34.4385   -23.4822    41.4394 H6            1 RES     
     780 H6          33.3076   -24.4888    40.4577 H6            1 RES     
     781 H6          35.0119   -25.0317    40.6993 H6            1 RES     
     782 H6          35.1573   -29.8581    46.1412 H6            1 RES     
     783 H6          36.0018   -28.3930    46.7454 H6            1 RES     
     784 H6          37.1004   -31.2452    46.1599 H6            1 RES     
     785 H6          38.1029   -29.8693    46.6741 H6            1 RES     
     786 H6          36.8030   -29.5689    48.7365 H6            1 RES     
     787 H6          35.7416   -30.9675    48.3151 H6            1 RES     
     788 H6          37.7095   -32.5166    48.4437 H6            1 RES     
     789 H6          38.7861   -31.1211    48.6818 H6            1 RES     
     790 H6          37.5139   -30.5135    50.8157 H6            1 RES     
     791 H6          36.5610   -32.0225    50.5946 H6            1 RES     
     792 H6          38.7171   -33.3556    50.7837 H6            1 RES     
     793 H6          38.3249   -32.3626    52.2357 H6            1 RES     
     794 H6          39.9094   -30.5707    51.4821 H6            1 RES     
     795 H6          40.3954   -31.5922    50.0750 H6            1 RES     
     796 H6          42.0142   -31.7916    51.9091 H6            1 RES     
     797 H6          40.7206   -32.3503    53.0345 H6            1 RES     
     798 H6          41.1935   -33.3720    51.6126 H6            1 RES     
     799 C0          39.6066   -27.7165    46.0106 C0            1 RES     
     800 C0          40.5196   -28.8568    46.5718 C0            1 RES     
     801 C0          40.3611   -28.9649    48.1284 C0            1 RES     
     802 C0          40.9938   -27.9163    49.0764 C0            1 RES     
     803 C0          40.3885   -26.4978    49.0945 C0            1 RES     
     804 C0          38.8760   -26.4173    49.3908 C0            1 RES     
     805 C0          38.4725   -27.0203    50.7426 C0            1 RES     
     806 C0          36.9729   -26.8525    50.9797 C0            1 RES     
     807 C0          42.0426   -28.7775    46.2582 C0            1 RES     
     808 C0          42.4134   -28.9939    44.8007 C0            1 RES     
     809 C0          43.9248   -29.0883    44.5876 C0            1 RES     
     810 C0          44.2167   -29.3568    43.1069 C0            1 RES     
     811 C0          45.7232   -29.4662    42.8422 C0            1 RES     
     812 C0          46.0476   -29.8008    41.3762 C0            1 RES     
     813 C0          45.5927   -28.7114    40.3919 C0            1 RES     
     814 C0          45.9987   -29.0588    38.9637 C0            1 RES     
     815 H6          40.1217   -26.7681    46.2422 H6            1 RES     
     816 H6          38.7015   -27.6853    46.6373 H6            1 RES     
     817 H6          40.1451   -29.8197    46.1728 H6            1 RES     
     818 H6          40.8388   -29.9282    48.4112 H6            1 RES     
     819 H6          39.2944   -29.0442    48.3977 H6            1 RES     
     820 H6          42.0838   -27.8450    48.8852 H6            1 RES     
     821 H6          40.8927   -28.3210    50.1064 H6            1 RES     
     822 H6          40.5967   -25.9856    48.1400 H6            1 RES     
     823 H6          40.9257   -25.9164    49.8750 H6            1 RES     
     824 H6          38.2946   -26.9176    48.5967 H6            1 RES     
     825 H6          38.5919   -25.3419    49.3811 H6            1 RES     
     826 H6          38.7057   -28.1055    50.7639 H6            1 RES     
     827 H6          39.0284   -26.5132    51.5604 H6            1 RES     
     828 H6          36.7008   -25.7751    50.9862 H6            1 RES     
     829 H6          36.6956   -27.2955    51.9588 H6            1 RES     
     830 H6          36.3953   -27.3666    50.1812 H6            1 RES     
     831 H6          42.5394   -29.5975    46.8236 H6            1 RES     
     832 H6          42.4624   -27.8096    46.6084 H6            1 RES     
     833 H6          41.9753   -29.9578    44.4736 H6            1 RES     
     834 H6          42.0354   -28.1447    44.2084 H6            1 RES     
     835 H6          44.4079   -28.1389    44.9050 H6            1 RES     
     836 H6          44.3354   -29.9244    45.1976 H6            1 RES     
     837 H6          43.7256   -30.3083    42.8027 H6            1 RES     
     838 H6          43.7863   -28.5238    42.5134 H6            1 RES     
     839 H6          46.2253   -28.5162    43.1277 H6            1 RES     
     840 H6          46.1360   -30.2823    43.4752 H6            1 RES     
     841 H6          45.5767   -30.7716    41.1054 H6            1 RES     
     842 H6          47.1507   -29.9153    41.2938 H6            1 RES     
     843 H6          46.0559   -27.7404    40.6714 H6            1 RES     
     844 H6          44.4884   -28.6040    40.4138 H6            1 RES     
     845 H6          45.6581   -28.2562    38.2759 H6            1 RES     
     846 H6          47.1031   -29.1484    38.8874 H6            1 RES     
     847 H6          45.5305   -30.0170    38.6524 H6            1 RES     
     848 C0          42.0122   -39.0094    38.5726 C0            1 RES     
     849 C1          42.2711   -37.5190    38.8279 C1            1 RES     
     850 C1          43.3605   -37.0533    38.1778 C1            1 RES     
     851 S2          43.6134   -35.4225    38.4458 S2            1 RES     
     852 C1          42.2395   -35.2941    39.4490 C1            1 RES     
     853 C1          41.6009   -36.5348    39.5571 C1            1 RES     
     854 C1          43.9400   -38.1292    37.4585 C1            1 RES     
     855 C1          43.2287   -39.2739    37.6770 C1            1 RES     
     856 C1          43.7772   -40.3812    37.0218 C1            1 RES     
     857 C1          44.9471   -40.0283    36.3014 C1            1 RES     
     858 S2          45.2462   -38.3551    36.4612 S2            1 RES     
     859 H3          40.7028   -36.7101    40.1327 H3            1 RES     
     860 H3          43.3520   -41.3717    37.0840 H3            1 RES     
     861 N4          47.6053   -41.1659    33.8812 N4            1 RES     
     862 C1          46.7351   -40.3770    34.5739 C1            1 RES     
     863 C1          45.8626   -40.9232    35.5437 C1            1 RES     
     864 C1          45.9470   -42.3083    35.7738 C1            1 RES     
     865 N4          45.2189   -42.9825    36.6994 N4            1 RES     
     866 S2          45.7786   -44.5297    36.5422 S2            1 RES     
     867 N4          46.9175   -44.4170    35.3516 N4            1 RES     
     868 C1          46.8803   -43.0980    35.0442 C1            1 RES     
     869 C1          47.6991   -42.5058    34.0922 C1            1 RES     
     870 H5          46.7213   -39.3188    34.3511 H5            1 RES     
     871 C0          40.6745   -39.0071    37.7382 C0            1 RES     
     872 C0          40.0069   -40.1869    36.9474 C0            1 RES     
     873 C0          39.0243   -39.5982    35.8698 C0            1 RES     
     874 C0          37.6356   -39.0362    36.2957 C0            1 RES     
     875 C0          37.5720   -37.7643    37.1668 C0            1 RES     
     876 C0          38.3047   -36.5324    36.6016 C0            1 RES     
     877 C0          37.7292   -36.0461    35.2649 C0            1 RES     
     878 C0          38.4567   -34.7924    34.7844 C0            1 RES     
     879 C0          39.2209   -41.2437    37.7750 C0            1 RES     
     880 C0          40.0569   -42.3805    38.3557 C0            1 RES     
     881 C0          39.1910   -43.2867    39.2501 C0            1 RES     
     882 C0          40.0128   -44.4108    39.9003 C0            1 RES     
     883 C0          39.1797   -45.1472    40.9639 C0            1 RES     
     884 C0          39.9906   -46.1558    41.7985 C0            1 RES     
     885 C0          41.0468   -45.4722    42.6897 C0            1 RES     
     886 C0          41.7566   -46.4757    43.5931 C0            1 RES     
     887 H6          39.9120   -38.5540    38.3872 H6            1 RES     
     888 H6          40.9075   -38.2800    36.9293 H6            1 RES     
     889 H6          40.7967   -40.6874    36.3440 H6            1 RES     
     890 H6          38.7868   -40.4400    35.1810 H6            1 RES     
     891 H6          39.5504   -38.8481    35.2410 H6            1 RES     
     892 H6          37.0601   -39.8320    36.8137 H6            1 RES     
     893 H6          37.0808   -38.8191    35.3583 H6            1 RES     
     894 H6          37.9440   -37.9835    38.1812 H6            1 RES     
     895 H6          36.5015   -37.4984    37.3069 H6            1 RES     
     896 H6          39.3832   -36.7441    36.4823 H6            1 RES     
     897 H6          38.2047   -35.7120    37.3459 H6            1 RES     
     898 H6          37.8397   -36.8318    34.4890 H6            1 RES     
     899 H6          36.6502   -35.8094    35.3896 H6            1 RES     
     900 H6          38.3522   -33.9744    35.5290 H6            1 RES     
     901 H6          38.0202   -34.4537    33.8213 H6            1 RES     
     902 H6          39.5356   -35.0082    34.6300 H6            1 RES     
     903 H6          38.4994   -41.7690    37.1093 H6            1 RES     
     904 H6          38.6325   -40.7166    38.5582 H6            1 RES     
     905 H6          40.5187   -42.9698    37.5338 H6            1 RES     
     906 H6          40.8493   -41.9527    38.9546 H6            1 RES     
     907 H6          38.7667   -42.6472    40.0563 H6            1 RES     
     908 H6          38.3507   -43.7278    38.6709 H6            1 RES     
     909 H6          40.3835   -45.1222    39.1312 H6            1 RES     
     910 H6          40.8913   -43.9612    40.3790 H6            1 RES     
     911 H6          38.7294   -44.4133    41.6687 H6            1 RES     
     912 H6          38.3495   -45.6806    40.4506 H6            1 RES     
     913 H6          40.4698   -46.9055    41.1332 H6            1 RES     
     914 H6          39.2746   -46.6857    42.4642 H6            1 RES     
     915 H6          40.5529   -44.7110    43.3337 H6            1 RES     
     916 H6          41.8177   -44.9745    42.0725 H6            1 RES     
     917 H6          42.5008   -45.9446    44.2211 H6            1 RES     
     918 H6          41.0256   -46.9812    44.2598 H6            1 RES     
     919 H6          42.2852   -47.2384    42.9806 H6            1 RES     
     920 C0          41.9329   -39.6988    39.9946 C0            1 RES     
     921 C0          42.7634   -40.9485    40.4391 C0            1 RES     
     922 C0          41.9898   -41.7524    41.5414 C0            1 RES     
     923 C0          41.8908   -41.2317    42.9966 C0            1 RES     
     924 C0          41.0171   -39.9889    43.2632 C0            1 RES     
     925 C0          39.5509   -40.0856    42.7916 C0            1 RES     
     926 C0          38.7677   -41.2438    43.4234 C0            1 RES     
     927 C0          37.3171   -41.2356    42.9453 C0            1 RES     
     928 C0          44.2082   -40.7012    40.9639 C0            1 RES     
     929 C0          45.2024   -40.2267    39.9175 C0            1 RES     
     930 C0          46.6358   -40.1799    40.4486 C0            1 RES     
     931 C0          47.5833   -39.7431    39.3255 C0            1 RES     
     932 C0          49.0378   -39.6866    39.8078 C0            1 RES     
     933 C0          50.0231   -39.3145    38.6867 C0            1 RES     
     934 C0          49.7846   -37.9085    38.1133 C0            1 RES     
     935 C0          50.8282   -37.5632    37.0565 C0            1 RES     
     936 H6          42.0593   -38.9462    40.7921 H6            1 RES     
     937 H6          40.8688   -39.9751    40.0583 H6            1 RES     
     938 H6          42.8345   -41.6352    39.5730 H6            1 RES     
     939 H6          42.5160   -42.7282    41.6242 H6            1 RES     
     940 H6          40.9623   -41.9692    41.2037 H6            1 RES     
     941 H6          42.9073   -41.0568    43.4039 H6            1 RES     
     942 H6          41.4613   -42.0606    43.5995 H6            1 RES     
     943 H6          41.4825   -39.0958    42.8131 H6            1 RES     
     944 H6          41.0169   -39.8112    44.3606 H6            1 RES     
     945 H6          39.4990   -40.1859    41.6933 H6            1 RES     
     946 H6          39.0511   -39.1289    43.0603 H6            1 RES     
     947 H6          39.2203   -42.2157    43.1353 H6            1 RES     
     948 H6          38.7856   -41.1488    44.5305 H6            1 RES     
     949 H6          36.8205   -40.2842    43.2333 H6            1 RES     
     950 H6          36.7644   -42.0797    43.4078 H6            1 RES     
     951 H6          37.2736   -41.3461    41.8401 H6            1 RES     
     952 H6          44.5971   -41.6767    41.3329 H6            1 RES     
     953 H6          44.1963   -39.9870    41.8156 H6            1 RES     
     954 H6          45.1877   -40.9481    39.0765 H6            1 RES     
     955 H6          44.9218   -39.2102    39.5964 H6            1 RES     
     956 H6          46.6974   -39.4659    41.2982 H6            1 RES     
     957 H6          46.9342   -41.1919    40.8043 H6            1 RES     
     958 H6          47.5095   -40.4651    38.4815 H6            1 RES     
     959 H6          47.2612   -38.7419    38.9718 H6            1 RES     
     960 H6          49.1294   -38.9572    40.6419 H6            1 RES     
     961 H6          49.3237   -40.6911    40.1905 H6            1 RES     
     962 H6          49.9574   -40.0685    37.8713 H6            1 RES     
     963 H6          51.0490   -39.3542    39.1140 H6            1 RES     
     964 H6          49.8399   -37.1586    38.9319 H6            1 RES     
     965 H6          48.7850   -37.8478    37.6352 H6            1 RES     
     966 H6          50.6320   -36.5443    36.6608 H6            1 RES     
     967 H6          51.8468   -37.5833    37.4989 H6            1 RES     
     968 H6          50.7791   -38.2875    36.2155 H6            1 RES     
     969 C0          49.8766   -46.3495    30.9776 C0            1 RES     
     970 C1          49.6401   -45.1302    31.8780 C1            1 RES     
     971 C1          50.7572   -44.3961    32.0770 C1            1 RES     
     972 S2          50.4768   -43.0575    33.0386 S2            1 RES     
     973 C1          48.8201   -43.4280    33.2072 C1            1 RES     
     974 C1          48.5112   -44.5977    32.5035 C1            1 RES     
     975 C1          51.8246   -45.0169    31.3798 C1            1 RES     
     976 C1          51.3825   -46.1526    30.7644 C1            1 RES     
     977 C1          52.4030   -46.8311    30.0903 C1            1 RES     
     978 C1          53.6471   -46.1640    30.2298 C1            1 RES     
     979 S2          53.4429   -44.7376    31.1453 S2            1 RES     
     980 H3          47.5238   -45.0348    32.4510 H3            1 RES     
     981 H3          52.2406   -47.7521    29.5508 H3            1 RES     
     982 N4          57.2673   -46.0232    29.1850 N4            1 RES     
     983 C1          56.0255   -45.6529    29.6094 C1            1 RES     
     984 C1          54.9813   -46.5984    29.7355 C1            1 RES     
     985 C1          55.2866   -47.9355    29.4233 C1            1 RES     
     986 N4          54.4177   -48.9718    29.5357 N4            1 RES     
     987 S2          55.3413   -50.2675    29.0881 S2            1 RES     
     988 N4          56.8149   -49.6026    28.7512 N4            1 RES     
     989 C1          56.5994   -48.2884    29.0003 C1            1 RES     
     990 C1          57.5782   -47.3112    28.8797 C1            1 RES     
     991 H5          55.8565   -44.6090    29.8357 H5            1 RES     
     992 C0          49.0616   -46.0007    29.6738 C0            1 RES     
     993 C0          49.0946   -46.7103    28.2744 C0            1 RES     
     994 C0          48.5537   -45.7205    27.1784 C0            1 RES     
     995 C0          47.0260   -45.4437    27.0541 C0            1 RES     
     996 C0          46.2983   -44.7051    28.1966 C0            1 RES     
     997 C0          46.8856   -43.3343    28.5841 C0            1 RES     
     998 C0          46.8347   -42.3095    27.4433 C0            1 RES     
     999 C0          47.3763   -40.9577    27.9032 C0            1 RES     
    1000 C0          48.3077   -48.0447    28.1343 C0            1 RES     
    1001 C0          49.0617   -49.3018    28.5580 C0            1 RES     
    1002 C0          48.1409   -50.5341    28.4895 C0            1 RES     
    1003 C0          48.8500   -51.8116    28.9656 C0            1 RES     
    1004 C0          47.8457   -52.9681    29.1113 C0            1 RES     
    1005 C0          48.4395   -54.2264    29.7714 C0            1 RES     
    1006 C0          48.8214   -53.9958    31.2472 C0            1 RES     
    1007 C0          49.2965   -55.2828    31.9141 C0            1 RES     
    1008 H6          48.0122   -45.9076    29.9869 H6            1 RES     
    1009 H6          49.4357   -44.9813    29.4327 H6            1 RES     
    1010 H6          50.1597   -46.8656    27.9921 H6            1 RES     
    1011 H6          48.8387   -46.1650    26.1982 H6            1 RES     
    1012 H6          49.1020   -44.7554    27.2299 H6            1 RES     
    1013 H6          46.4924   -46.4007    26.8740 H6            1 RES     
    1014 H6          46.8877   -44.8390    26.1328 H6            1 RES     
    1015 H6          46.2448   -45.3507    29.0887 H6            1 RES     
    1016 H6          45.2404   -44.5557    27.8887 H6            1 RES     
    1017 H6          47.9288   -43.4445    28.9332 H6            1 RES     
    1018 H6          46.2872   -42.9417    29.4355 H6            1 RES     
    1019 H6          47.4475   -42.6565    26.5857 H6            1 RES     
    1020 H6          45.7829   -42.1793    27.1079 H6            1 RES     
    1021 H6          46.7745   -40.5674    28.7516 H6            1 RES     
    1022 H6          47.3234   -40.2302    27.0661 H6            1 RES     
    1023 H6          48.4358   -41.0556    28.2233 H6            1 RES     
    1024 H6          48.0848   -48.2285    27.0589 H6            1 RES     
    1025 H6          47.3358   -47.9424    28.6657 H6            1 RES     
    1026 H6          49.9542   -49.4451    27.9106 H6            1 RES     
    1027 H6          49.3980   -49.1732    29.5777 H6            1 RES     
    1028 H6          47.2759   -50.3381    29.1620 H6            1 RES     
    1029 H6          47.7575   -50.6846    27.4567 H6            1 RES     
    1030 H6          49.6694   -52.0897    28.2685 H6            1 RES     
    1031 H6          49.3074   -51.6071    29.9415 H6            1 RES     
    1032 H6          46.9786   -52.6428    29.7281 H6            1 RES     
    1033 H6          47.4650   -53.2306    28.0996 H6            1 RES     
    1034 H6          49.3188   -54.5830    29.1935 H6            1 RES     
    1035 H6          47.6573   -55.0161    29.7413 H6            1 RES     
    1036 H6          47.9356   -53.6195    31.8056 H6            1 RES     
    1037 H6          49.6386   -53.2552    31.3296 H6            1 RES     
    1038 H6          49.5537   -55.0762    32.9730 H6            1 RES     
    1039 H6          48.4949   -56.0517    31.8870 H6            1 RES     
    1040 H6          50.1996   -55.6738    31.3966 H6            1 RES     
    1041 C0          49.3675   -47.6091    31.7887 C0            1 RES     
    1042 C0          50.2013   -48.9054    32.0594 C0            1 RES     
    1043 C0          49.2485   -50.1383    32.2383 C0            1 RES     
    1044 C0          48.4205   -50.3343    33.5323 C0            1 RES     
    1045 C0          47.2486   -49.3667    33.7957 C0            1 RES     
    1046 C0          46.1909   -49.2731    32.6759 C0            1 RES     
    1047 C0          45.5137   -50.6094    32.3445 C0            1 RES     
    1048 C0          44.4474   -50.4190    31.2676 C0            1 RES     
    1049 C0          51.1820   -48.8892    33.2687 C0            1 RES     
    1050 C0          52.3821   -47.9702    33.1139 C0            1 RES     
    1051 C0          53.3977   -48.1360    34.2451 C0            1 RES     
    1052 C0          54.5985   -47.2170    33.9930 C0            1 RES     
    1053 C0          55.6510   -47.3515    35.1001 C0            1 RES     
    1054 C0          56.8994   -46.4903    34.8429 C0            1 RES     
    1055 C0          56.6003   -44.9829    34.8191 C0            1 RES     
    1056 C0          57.8786   -44.1732    34.6304 C0            1 RES     
    1057 H6          48.9604   -47.2957    32.7658 H6            1 RES     
    1058 H6          48.4764   -47.9085    31.2150 H6            1 RES     
    1059 H6          50.7943   -49.1244    31.1500 H6            1 RES     
    1060 H6          49.9051   -51.0337    32.1829 H6            1 RES     
    1061 H6          48.5459   -50.2023    31.3905 H6            1 RES     
    1062 H6          49.0941   -50.3393    34.4132 H6            1 RES     
    1063 H6          47.9864   -51.3558    33.4770 H6            1 RES     
    1064 H6          47.6341   -48.3562    34.0130 H6            1 RES     
    1065 H6          46.7403   -49.7045    34.7249 H6            1 RES     
    1066 H6          46.6356   -48.8671    31.7505 H6            1 RES     
    1067 H6          45.4128   -48.5530    33.0124 H6            1 RES     
    1068 H6          46.2625   -51.3353    31.9639 H6            1 RES     
    1069 H6          45.0368   -51.0249    33.2582 H6            1 RES     
    1070 H6          43.6652   -49.7123    31.6188 H6            1 RES     
    1071 H6          43.9688   -51.3933    31.0365 H6            1 RES     
    1072 H6          44.9050   -50.0187    30.3370 H6            1 RES     
    1073 H6          51.5970   -49.9169    33.3711 H6            1 RES     
    1074 H6          50.6402   -48.6378    34.2061 H6            1 RES     
    1075 H6          52.8977   -48.2335    32.1690 H6            1 RES     
    1076 H6          52.0317   -46.9251    33.1173 H6            1 RES     
    1077 H6          52.9212   -47.8821    35.2167 H6            1 RES     
    1078 H6          53.7480   -49.1923    34.2793 H6            1 RES     
    1079 H6          55.0640   -47.4808    33.0169 H6            1 RES     
    1080 H6          54.2294   -46.1717    33.9449 H6            1 RES     
    1081 H6          55.2036   -47.0763    36.0800 H6            1 RES     
    1082 H6          55.9770   -48.4137    35.1521 H6            1 RES     
    1083 H6          57.3674   -46.7953    33.8808 H6            1 RES     
    1084 H6          57.6237   -46.6955    35.6614 H6            1 RES     
    1085 H6          56.1228   -44.6831    35.7770 H6            1 RES     
    1086 H6          55.9156   -44.7353    33.9816 H6            1 RES     
    1087 H6          57.6330   -43.0903    34.6173 H6            1 RES     
    1088 H6          58.5855   -44.3680    35.4647 H6            1 RES     
    1089 H6          58.3649   -44.4399    33.6678 H6            1 RES     
    1090 C0          61.7165   -49.2802    26.0137 C0            1 RES     
    1091 C1          60.8378   -48.6056    27.0749 C1            1 RES     
    1092 C1          61.5548   -48.0156    28.0569 C1            1 RES     
    1093 S2          60.5833   -47.2632    29.1907 S2            1 RES     
    1094 C1          59.1524   -47.7076    28.3750 C1            1 RES     
    1095 C1          59.4593   -48.4395    27.2221 C1            1 RES     
    1096 C1          62.9308   -48.2294    27.7895 C1            1 RES     
    1097 C1          63.0758   -48.9738    26.6543 C1            1 RES     
    1098 C1          64.4148   -49.2507    26.3600 C1            1 RES     
    1099 C1          65.2839   -48.6906    27.3312 C1            1 RES     
    1100 S2          64.3777   -47.8374    28.4998 S2            1 RES     
    1101 H3          58.7229   -48.8279    26.5325 H3            1 RES     
    1102 H3          64.7209   -49.8316    25.5030 H3            1 RES     
    1103 N4          68.8568   -48.0099    28.3254 N4            1 RES     
    1104 C1          67.5037   -47.9000    28.1975 C1            1 RES     
    1105 C1          66.7626   -48.8239    27.4245 C1            1 RES     
    1106 C1          67.4797   -49.8680    26.8128 C1            1 RES     
    1107 N4          66.9193   -50.8626    26.0792 N4            1 RES     
    1108 S2          68.2240   -51.7944    25.6777 S2            1 RES     
    1109 N4          69.4965   -51.0155    26.3859 N4            1 RES     
    1110 C1          68.8902   -49.9614    26.9830 C1            1 RES     
    1111 C1          69.5642   -49.0132    27.7407 C1            1 RES     
    1112 H5          67.0118   -47.0755    28.6952 H5            1 RES     
    1113 C0          61.4751   -48.3982    24.7293 C0            1 RES     
    1114 C0          62.2666   -48.3974    23.3742 C0            1 RES     
    1115 C0          62.0241   -47.0316    22.6331 C0            1 RES     
    1116 C0          60.6765   -46.7635    21.8997 C0            1 RES     
    1117 C0          59.3801   -46.6381    22.7269 C0            1 RES     
    1118 C0          59.4028   -45.5777    23.8446 C0            1 RES     
    1119 C0          59.5991   -44.1492    23.3199 C0            1 RES     
    1120 C0          59.5558   -43.1396    24.4648 C0            1 RES     
    1121 C0          61.9558   -49.5418    22.3676 C0            1 RES     
    1122 C0          62.7335   -50.8370    22.5820 C0            1 RES     
    1123 C0          62.2510   -51.9258    21.6058 C0            1 RES     
    1124 C0          62.9720   -53.2640    21.8317 C0            1 RES     
    1125 C0          62.3076   -54.3840    21.0121 C0            1 RES     
    1126 C0          62.8452   -55.7908    21.3336 C0            1 RES     
    1127 C0          62.4975   -56.2438    22.7657 C0            1 RES     
    1128 C0          62.9353   -57.6820    23.0237 C0            1 RES     
    1129 H6          60.4032   -48.4807    24.5008 H6            1 RES     
    1130 H6          61.6620   -47.3718    25.1149 H6            1 RES     
    1131 H6          63.3539   -48.3839    23.6106 H6            1 RES     
    1132 H6          62.7949   -46.9782    21.8315 H6            1 RES     
    1133 H6          62.2519   -46.1818    23.3118 H6            1 RES     
    1134 H6          60.5142   -47.5475    21.1304 H6            1 RES     
    1135 H6          60.8030   -45.8108    21.3429 H6            1 RES     
    1136 H6          59.1080   -47.6184    23.1518 H6            1 RES     
    1137 H6          58.5510   -46.3899    22.0288 H6            1 RES     
    1138 H6          60.1922   -45.8100    24.5829 H6            1 RES     
    1139 H6          58.4253   -45.6263    24.3728 H6            1 RES     
    1140 H6          60.5811   -44.0569    22.8112 H6            1 RES     
    1141 H6          58.7917   -43.9056    22.5958 H6            1 RES     
    1142 H6          58.5770   -43.1890    24.9882 H6            1 RES     
    1143 H6          59.6920   -42.1136    24.0628 H6            1 RES     
    1144 H6          60.3687   -43.3474    25.1931 H6            1 RES     
    1145 H6          62.2613   -49.2245    21.3450 H6            1 RES     
    1146 H6          60.8568   -49.7131    22.3516 H6            1 RES     
    1147 H6          63.8221   -50.6517    22.4528 H6            1 RES     
    1148 H6          62.5638   -51.1758    23.5949 H6            1 RES     
    1149 H6          61.1631   -52.0749    21.7885 H6            1 RES     
    1150 H6          62.3903   -51.6018    20.5514 H6            1 RES     
    1151 H6          64.0500   -53.1780    21.5759 H6            1 RES     
    1152 H6          62.9087   -53.5125    22.8982 H6            1 RES     
    1153 H6          61.2109   -54.3926    21.1999 H6            1 RES     
    1154 H6          62.4670   -54.1692    19.9324 H6            1 RES     
    1155 H6          63.9435   -55.8274    21.1702 H6            1 RES     
    1156 H6          62.3623   -56.4992    20.6255 H6            1 RES     
    1157 H6          61.3971   -56.1811    22.9182 H6            1 RES     
    1158 H6          63.0005   -55.6021    23.5129 H6            1 RES     
    1159 H6          62.6614   -57.9709    24.0590 H6            1 RES     
    1160 H6          62.4293   -58.3736    22.3166 H6            1 RES     
    1161 H6          64.0370   -57.7761    22.9061 H6            1 RES     
    1162 C0          61.2267   -50.7817    25.9171 C0            1 RES     
    1163 C0          62.1483   -52.0409    26.0352 C0            1 RES     
    1164 C0          61.5330   -53.2428    25.2373 C0            1 RES     
    1165 C0          60.3068   -54.0216    25.7743 C0            1 RES     
    1166 C0          58.9412   -53.3048    25.7842 C0            1 RES     
    1167 C0          58.4703   -52.7391    24.4278 C0            1 RES     
    1168 C0          58.3370   -53.7961    23.3238 C0            1 RES     
    1169 C0          57.8174   -53.1637    22.0342 C0            1 RES     
    1170 C0          62.4879   -52.5509    27.4665 C0            1 RES     
    1171 C0          63.3836   -51.6341    28.2826 C0            1 RES     
    1172 C0          63.8301   -52.2702    29.5996 C0            1 RES     
    1173 C0          64.7677   -51.3094    30.3396 C0            1 RES     
    1174 C0          65.2492   -51.9060    31.6677 C0            1 RES     
    1175 C0          66.2443   -50.9934    32.4046 C0            1 RES     
    1176 C0          65.6348   -49.6453    32.8215 C0            1 RES     
    1177 C0          66.6393   -48.8089    33.6068 C0            1 RES     
    1178 H6          60.3817   -50.9534    26.6064 H6            1 RES     
    1179 H6          60.7629   -50.8096    24.9187 H6            1 RES     
    1180 H6          63.1046   -51.8113    25.5257 H6            1 RES     
    1181 H6          62.3430   -54.0012    25.1678 H6            1 RES     
    1182 H6          61.2943   -52.9326    24.2060 H6            1 RES     
    1183 H6          60.5225   -54.4090    26.7907 H6            1 RES     
    1184 H6          60.1938   -54.9173    25.1263 H6            1 RES     
    1185 H6          58.9455   -52.4933    26.5315 H6            1 RES     
    1186 H6          58.1829   -54.0377    26.1359 H6            1 RES     
    1187 H6          59.1552   -51.9484    24.0746 H6            1 RES     
    1188 H6          57.4765   -52.2669    24.5912 H6            1 RES     
    1189 H6          59.3253   -54.2542    23.1095 H6            1 RES     
    1190 H6          57.6312   -54.5907    23.6486 H6            1 RES     
    1191 H6          56.8169   -52.7103    22.2019 H6            1 RES     
    1192 H6          57.7290   -53.9389    21.2448 H6            1 RES     
    1193 H6          58.5171   -52.3756    21.6809 H6            1 RES     
    1194 H6          63.0512   -53.5041    27.3526 H6            1 RES     
    1195 H6          61.5568   -52.7630    28.0354 H6            1 RES     
    1196 H6          64.2978   -51.4298    27.6905 H6            1 RES     
    1197 H6          62.8276   -50.7118    28.5177 H6            1 RES     
    1198 H6          62.9409   -52.4941    30.2279 H6            1 RES     
    1199 H6          64.3726   -53.2196    29.3896 H6            1 RES     
    1200 H6          65.6515   -51.0926    29.6986 H6            1 RES     
    1201 H6          64.2172   -50.3641    30.5253 H6            1 RES     
    1202 H6          64.3768   -52.1139    32.3249 H6            1 RES     
    1203 H6          65.7644   -52.8691    31.4577 H6            1 RES     
    1204 H6          67.1341   -50.8195    31.7599 H6            1 RES     
    1205 H6          66.5784   -51.5299    33.3196 H6            1 RES     
    1206 H6          64.7397   -49.8220    33.4564 H6            1 RES     
    1207 H6          65.3333   -49.0615    31.9272 H6            1 RES     
    1208 H6          66.1729   -47.8430    33.8944 H6            1 RES     
    1209 H6          66.9489   -49.3437    34.5298 H6            1 RES     
    1210 H6          67.5362   -48.6002    32.9853 H6            1 RES     
    1211 C0          74.8644   -49.3783    26.7451 C0            1 RES     
    1212 C1          73.4858   -49.2768    27.4104 C1            1 RES     
    1213 C1          73.5550   -49.1784    28.7566 C1            1 RES     
    1214 S2          72.0461   -49.0424    29.4637 S2            1 RES     
    1215 C1          71.2480   -49.1025    27.9571 C1            1 RES     
    1216 C1          72.1795   -49.2267    26.9199 C1            1 RES     
    1217 C1          74.9215   -49.2167    29.1332 C1            1 RES     
    1218 C1          75.7071   -49.3638    28.0263 C1            1 RES     
    1219 C1          77.0677   -49.4471    28.3396 C1            1 RES     
    1220 C1          77.2815   -49.3670    29.7397 C1            1 RES     
    1221 S2          75.7909   -49.1554    30.5446 S2            1 RES     
    1222 H3          71.9212   -49.2780    25.8714 H3            1 RES     
    1223 H3          77.8370   -49.5704    27.5923 H3            1 RES     
    1224 N4          79.8191   -49.1281    32.5183 N4            1 RES     
    1225 C1          78.6651   -49.0031    31.8027 C1            1 RES     
    1226 C1          78.5655   -49.4943    30.4802 C1            1 RES     
    1227 C1          79.6998   -50.1322    29.9465 C1            1 RES     
    1228 N4          79.7580   -50.7001    28.7154 N4            1 RES     
    1229 S2          81.2899   -51.3196    28.6755 S2            1 RES     
    1230 N4          81.9158   -50.9163    30.1496 N4            1 RES     
    1231 C1          80.8820   -50.2602    30.7295 C1            1 RES     
    1232 C1          80.9238   -49.7421    32.0169 C1            1 RES     
    1233 H5          77.8282   -48.5042    32.2718 H5            1 RES     
    1234 C0          74.9891   -48.0167    25.9602 C0            1 RES     
    1235 C0          76.2558   -47.3850    25.2823 C0            1 RES     
    1236 C0          76.0339   -45.8377    25.1095 C0            1 RES     
    1237 C0          75.1041   -45.2978    23.9826 C0            1 RES     
    1238 C0          73.5906   -45.5897    24.0496 C0            1 RES     
    1239 C0          72.8839   -45.1490    25.3460 C0            1 RES     
    1240 C0          72.9386   -43.6336    25.5804 C0            1 RES     
    1241 C0          72.1747   -43.2521    26.8465 C0            1 RES     
    1242 C0          76.6836   -47.9574    23.9007 C0            1 RES     
    1243 C0          77.5798   -49.1914    23.9477 C0            1 RES     
    1244 C0          77.8315   -49.7318    22.5279 C0            1 RES     
    1245 C0          78.6836   -51.0106    22.5397 C0            1 RES     
    1246 C0          78.7173   -51.6538    21.1424 C0            1 RES     
    1247 C0          79.3849   -53.0412    21.1137 C0            1 RES     
    1248 C0          78.5807   -54.1007    21.8935 C0            1 RES     
    1249 C0          79.1956   -55.4898    21.7544 C0            1 RES     
    1250 H6          74.1693   -48.0114    25.2282 H6            1 RES     
    1251 H6          74.7447   -47.2715    26.7491 H6            1 RES     
    1252 H6          77.1021   -47.4551    26.0014 H6            1 RES     
    1253 H6          77.0349   -45.4100    24.8759 H6            1 RES     
    1254 H6          75.7428   -45.3818    26.0801 H6            1 RES     
    1255 H6          75.4754   -45.6526    22.9981 H6            1 RES     
    1256 H6          75.2247   -44.1937    23.9745 H6            1 RES     
    1257 H6          73.4055   -46.6621    23.8729 H6            1 RES     
    1258 H6          73.1037   -45.0715    23.1948 H6            1 RES     
    1259 H6          73.3153   -45.6720    26.2193 H6            1 RES     
    1260 H6          71.8172   -45.4536    25.2666 H6            1 RES     
    1261 H6          73.9905   -43.2989    25.6942 H6            1 RES     
    1262 H6          72.4827   -43.1074    24.7139 H6            1 RES     
    1263 H6          71.1091   -43.5552    26.7623 H6            1 RES     
    1264 H6          72.2205   -42.1524    26.9927 H6            1 RES     
    1265 H6          72.6252   -43.7482    27.7327 H6            1 RES     
    1266 H6          77.3092   -47.2050    23.3693 H6            1 RES     
    1267 H6          75.7709   -48.1279    23.2879 H6            1 RES     
    1268 H6          78.5417   -48.9429    24.4469 H6            1 RES     
    1269 H6          77.0821   -49.9554    24.5292 H6            1 RES     
    1270 H6          76.8390   -49.9722    22.0850 H6            1 RES     
    1271 H6          78.3238   -48.9629    21.8934 H6            1 RES     
    1272 H6          79.7135   -50.7937    22.8962 H6            1 RES     
    1273 H6          78.2345   -51.7159    23.2498 H6            1 RES     
    1274 H6          77.6815   -51.7715    20.7533 H6            1 RES     
    1275 H6          79.2639   -50.9704    20.4557 H6            1 RES     
    1276 H6          80.4225   -52.9749    21.5053 H6            1 RES     
    1277 H6          79.4320   -53.3637    20.0506 H6            1 RES     
    1278 H6          77.5397   -54.1389    21.5024 H6            1 RES     
    1279 H6          78.5504   -53.8549    22.9713 H6            1 RES     
    1280 H6          78.5854   -56.2217    22.3220 H6            1 RES     
    1281 H6          79.2181   -55.7982    20.6872 H6            1 RES     
    1282 H6          80.2303   -55.4953    22.1613 H6            1 RES     
    1283 C0          74.8343   -50.6846    25.8527 C0            1 RES     
    1284 C0          75.8887   -51.8397    25.9080 C0            1 RES     
    1285 C0          75.9756   -52.5646    24.5199 C0            1 RES     
    1286 C0          74.8614   -53.5298    24.0450 C0            1 RES     
    1287 C0          73.4937   -52.9264    23.6654 C0            1 RES     
    1288 C0          73.5238   -51.8193    22.5905 C0            1 RES     
    1289 C0          74.1272   -52.2657    21.2524 C0            1 RES     
    1290 C0          74.0705   -51.1305    20.2320 C0            1 RES     
    1291 C0          75.6989   -52.9339    26.9992 C0            1 RES     
    1292 C0          75.9170   -52.4651    28.4279 C0            1 RES     
    1293 C0          75.8991   -53.6176    29.4329 C0            1 RES     
    1294 C0          76.1758   -53.0742    30.8393 C0            1 RES     
    1295 C0          76.1743   -54.1956    31.8852 C0            1 RES     
    1296 C0          76.5139   -53.6924    33.2986 C0            1 RES     
    1297 C0          75.4841   -52.6929    33.8488 C0            1 RES     
    1298 C0          75.8294   -52.2793    35.2754 C0            1 RES     
    1299 H6          73.8443   -51.1687    25.9165 H6            1 RES     
    1300 H6          74.8597   -50.2686    24.8334 H6            1 RES     
    1301 H6          76.8859   -51.3828    26.0615 H6            1 RES     
    1302 H6          76.8929   -53.1909    24.5668 H6            1 RES     
    1303 H6          76.1311   -51.8271    23.7145 H6            1 RES     
    1304 H6          74.7104   -54.3300    24.7978 H6            1 RES     
    1305 H6          75.2507   -54.0380    23.1367 H6            1 RES     
    1306 H6          72.9874   -52.5406    24.5663 H6            1 RES     
    1307 H6          72.8562   -53.7562    23.2902 H6            1 RES     
    1308 H6          74.0842   -50.9390    22.9510 H6            1 RES     
    1309 H6          72.4739   -51.4949    22.4176 H6            1 RES     
    1310 H6          75.1905   -52.5546    21.3881 H6            1 RES     
    1311 H6          73.5615   -53.1371    20.8579 H6            1 RES     
    1312 H6          73.0174   -50.8249    20.0520 H6            1 RES     
    1313 H6          74.5126   -51.4667    19.2711 H6            1 RES     
    1314 H6          74.6444   -50.2520    20.5986 H6            1 RES     
    1315 H6          76.4659   -53.7194    26.8163 H6            1 RES     
    1316 H6          74.6943   -53.4016    26.9112 H6            1 RES     
    1317 H6          76.9186   -51.9943    28.4866 H6            1 RES     
    1318 H6          75.1123   -51.7617    28.6976 H6            1 RES     
    1319 H6          74.9088   -54.1217    29.4073 H6            1 RES     
    1320 H6          76.6879   -54.3567    29.1660 H6            1 RES     
    1321 H6          77.1685   -52.5708    30.8496 H6            1 RES     
    1322 H6          75.3913   -52.3278    31.0817 H6            1 RES     
    1323 H6          75.1826   -54.6981    31.8966 H6            1 RES     
    1324 H6          76.9426   -54.9477    31.5997 H6            1 RES     
    1325 H6          77.5237   -53.2256    33.2923 H6            1 RES     
    1326 H6          76.5449   -54.5769    33.9719 H6            1 RES     
    1327 H6          74.4745   -53.1580    33.8436 H6            1 RES     
    1328 H6          75.4616   -51.7748    33.2258 H6            1 RES     
    1329 H6          75.0703   -51.5588    35.6465 H6            1 RES     
    1330 H6          75.8352   -53.1664    35.9437 H6            1 RES     
    1331 H6          76.8273   -51.7918    35.3042 H6            1 RES     
    1332 C0          86.0637   -49.4965    33.6712 C0            1 RES     
    1333 C1          84.5527   -49.7382    33.5622 C1            1 RES     
    1334 C1          84.0184   -50.2576    34.6897 C1            1 RES     
    1335 S2          82.3676   -50.4906    34.5633 S2            1 RES     
    1336 C1          82.3242   -49.8811    32.9706 C1            1 RES     
    1337 C1          83.6079   -49.5016    32.5619 C1            1 RES     
    1338 C1          85.0614   -50.4309    35.6345 C1            1 RES     
    1339 C1          86.2526   -50.0436    35.0914 C1            1 RES     
    1340 C1          87.3281   -50.2284    35.9663 C1            1 RES     
    1341 C1          86.9015   -50.7853    37.1993 C1            1 RES     
    1342 S2          85.2072   -50.9946    37.1878 S2            1 RES     
    1343 H3          83.8396   -49.0791    31.5941 H3            1 RES     
    1344 H3          88.3468   -49.9829    35.7065 H3            1 RES     
    1345 N4          87.8819   -51.7708    40.7042 N4            1 RES     
    1346 C1          87.1479   -51.3621    39.6302 C1            1 RES     
    1347 C1          87.7390   -51.2043    38.3551 C1            1 RES     
    1348 C1          89.1083   -51.5059    38.2420 C1            1 RES     
    1349 N4          89.8168   -51.4542    37.0858 N4            1 RES     
    1350 S2          91.3192   -51.9536    37.5603 S2            1 RES     
    1351 N4          91.1444   -52.2463    39.1762 N4            1 RES     
    1352 C1          89.8391   -51.9471    39.3814 C1            1 RES     
    1353 C1          89.2059   -52.0663    40.6112 C1            1 RES     
    1354 H5          86.0989   -51.1485    39.7836 H5            1 RES     
    1355 C0          86.1823   -47.9246    33.6409 C0            1 RES     
    1356 C0          87.4266   -47.0259    33.9682 C0            1 RES     
    1357 C0          86.9384   -45.5732    34.3211 C0            1 RES     
    1358 C0          86.4762   -44.6034    33.1934 C0            1 RES     
    1359 C0          85.1948   -44.9285    32.3978 C0            1 RES     
    1360 C0          83.9223   -45.1380    33.2411 C0            1 RES     
    1361 C0          83.5104   -43.8916    34.0355 C0            1 RES     
    1362 C0          82.2148   -44.1414    34.8043 C0            1 RES     
    1363 C0          88.5230   -46.9017    32.8719 C0            1 RES     
    1364 C0          89.5794   -48.0028    32.8687 C0            1 RES     
    1365 C0          90.5304   -47.8368    31.6692 C0            1 RES     
    1366 C0          91.5738   -48.9630    31.5997 C0            1 RES     
    1367 C0          92.3494   -48.9038    30.2722 C0            1 RES     
    1368 C0          93.2746   -50.1127    30.0395 C0            1 RES     
    1369 C0          92.4928   -51.4283    29.8520 C0            1 RES     
    1370 C0          93.4191   -52.5899    29.5065 C0            1 RES     
    1371 H6          85.7756   -47.6075    32.6703 H6            1 RES     
    1372 H6          85.4568   -47.6225    34.4281 H6            1 RES     
    1373 H6          87.8774   -47.3942    34.9166 H6            1 RES     
    1374 H6          87.8105   -45.0633    34.7892 H6            1 RES     
    1375 H6          86.1636   -45.6122    35.1166 H6            1 RES     
    1376 H6          87.3028   -44.4662    32.4648 H6            1 RES     
    1377 H6          86.3225   -43.6125    33.6711 H6            1 RES     
    1378 H6          85.3630   -45.8090    31.7560 H6            1 RES     
    1379 H6          85.0092   -44.0911    31.6903 H6            1 RES     
    1380 H6          84.0527   -45.9894    33.9342 H6            1 RES     
    1381 H6          83.0965   -45.3980    32.5429 H6            1 RES     
    1382 H6          84.3015   -43.6206    34.7650 H6            1 RES     
    1383 H6          83.3549   -43.0409    33.3370 H6            1 RES     
    1384 H6          81.3916   -44.3979    34.1036 H6            1 RES     
    1385 H6          81.9313   -43.2259    35.3651 H6            1 RES     
    1386 H6          82.3500   -44.9742    35.5273 H6            1 RES     
    1387 H6          89.1164   -45.9763    33.0491 H6            1 RES     
    1388 H6          88.0263   -46.7975    31.8819 H6            1 RES     
    1389 H6          90.1487   -47.9849    33.8236 H6            1 RES     
    1390 H6          89.0792   -48.9583    32.7885 H6            1 RES     
    1391 H6          89.9085   -47.8736    30.7467 H6            1 RES     
    1392 H6          91.0472   -46.8531    31.7070 H6            1 RES     
    1393 H6          92.2707   -48.9072    32.4636 H6            1 RES     
    1394 H6          91.0477   -49.9232    31.6667 H6            1 RES     
    1395 H6          91.6376   -48.8564    29.4182 H6            1 RES     
    1396 H6          92.9560   -47.9715    30.2626 H6            1 RES     
    1397 H6          93.9990   -50.2069    30.8765 H6            1 RES     
    1398 H6          93.8437   -49.9184    29.1042 H6            1 RES     
    1399 H6          91.7584   -51.3092    29.0246 H6            1 RES     
    1400 H6          91.9503   -51.6972    30.7774 H6            1 RES     
    1401 H6          92.8190   -53.5131    29.3731 H6            1 RES     
    1402 H6          93.9652   -52.3818    28.5615 H6            1 RES     
    1403 H6          94.1517   -52.7552    30.3264 H6            1 RES     
    1404 C0          86.7269   -50.2583    32.4532 C0            1 RES     
    1405 C0          87.8991   -51.2891    32.5639 C0            1 RES     
    1406 C0          88.7366   -51.3058    31.2380 C0            1 RES     
    1407 C0          88.1942   -51.9771    29.9520 C0            1 RES     
    1408 C0          87.0171   -51.2986    29.2220 C0            1 RES     
    1409 C0          87.2366   -49.8248    28.8201 C0            1 RES     
    1410 C0          88.4380   -49.6039    27.8918 C0            1 RES     
    1411 C0          88.5518   -48.1316    27.5013 C0            1 RES     
    1412 C0          87.5300   -52.7626    32.9059 C0            1 RES     
    1413 C0          87.0026   -52.9856    34.3133 C0            1 RES     
    1414 C0          86.8343   -54.4681    34.6487 C0            1 RES     
    1415 C0          86.3497   -54.6132    36.0958 C0            1 RES     
    1416 C0          86.1710   -56.0861    36.4833 C0            1 RES     
    1417 C0          85.7480   -56.2688    37.9509 C0            1 RES     
    1418 C0          84.3771   -55.6499    38.2672 C0            1 RES     
    1419 C0          83.9748   -55.9183    39.7134 C0            1 RES     
    1420 H6          85.9499   -50.7414    31.8356 H6            1 RES     
    1421 H6          87.0829   -49.4258    31.8263 H6            1 RES     
    1422 H6          88.5965   -50.9284    33.3451 H6            1 RES     
    1423 H6          89.6670   -51.8645    31.4793 H6            1 RES     
    1424 H6          89.0391   -50.2805    30.9660 H6            1 RES     
    1425 H6          87.9329   -53.0344    30.1607 H6            1 RES     
    1426 H6          89.0408   -52.0106    29.2329 H6            1 RES     
    1427 H6          86.1006   -51.3736    29.8313 H6            1 RES     
    1428 H6          86.8167   -51.8834    28.2981 H6            1 RES     
    1429 H6          87.3639   -49.1901    29.7145 H6            1 RES     
    1430 H6          86.3157   -49.4813    28.2993 H6            1 RES     
    1431 H6          89.3780   -49.8986    28.4037 H6            1 RES     
    1432 H6          88.3184   -50.2154    26.9717 H6            1 RES     
    1433 H6          87.6356   -47.8017    26.9661 H6            1 RES     
    1434 H6          89.4259   -47.9868    26.8329 H6            1 RES     
    1435 H6          88.6888   -47.5010    28.4064 H6            1 RES     
    1436 H6          88.4646   -53.3627    32.8325 H6            1 RES     
    1437 H6          86.8010   -53.1627    32.1684 H6            1 RES     
    1438 H6          87.7408   -52.5695    35.0275 H6            1 RES     
    1439 H6          86.0179   -52.4988    34.4047 H6            1 RES     
    1440 H6          86.0998   -54.9285    33.9531 H6            1 RES     
    1441 H6          87.8124   -54.9884    34.5379 H6            1 RES     
    1442 H6          87.0930   -54.1464    36.7803 H6            1 RES     
    1443 H6          85.3840   -54.0752    36.1923 H6            1 RES     
    1444 H6          85.4191   -56.5619    35.8166 H6            1 RES     
    1445 H6          87.1421   -56.6100    36.3429 H6            1 RES     
    1446 H6          86.5219   -55.8266    38.6167 H6            1 RES     
    1447 H6          85.6994   -57.3612    38.1532 H6            1 RES     
    1448 H6          83.6078   -56.0853    37.5932 H6            1 RES     
    1449 H6          84.4038   -54.5501    38.1214 H6            1 RES     
    1450 H6          82.9828   -55.4611    39.9132 H6            1 RES     
    1451 H6          83.9070   -57.0114    39.8986 H6            1 RES     
    1452 H6          84.7185   -55.4739    40.4089 H6            1 RES     
    1453 C0          92.9356   -52.4781    44.5017 C0            1 RES     
    1454 C1          91.7193   -52.6788    43.5886 C1            1 RES     
    1455 C1          90.8972   -53.6639    44.0131 C1            1 RES     
    1456 S2          89.5640   -53.8523    43.0219 S2            1 RES     
    1457 C1          90.0575   -52.5895    41.9863 C1            1 RES     
    1458 C1          91.2623   -52.0370    42.4359 C1            1 RES     
    1459 C1          91.4486   -54.2219    45.1944 C1            1 RES     
    1460 C1          92.6278   -53.6038    45.4966 C1            1 RES     
    1461 C1          93.2398   -54.1397    46.6343 C1            1 RES     
    1462 C1          92.4760   -55.2034    47.1796 C1            1 RES     
    1463 S2          91.0504   -55.4236    46.2664 S2            1 RES     
    1464 H3          91.7752   -51.2175    41.9522 H3            1 RES     
    1465 H3          94.1818   -53.7800    47.0202 H3            1 RES     
    1466 N4          92.0788   -57.6447    50.0255 N4            1 RES     
    1467 C1          91.7963   -56.8114    48.9838 C1            1 RES     
    1468 C1          92.8166   -56.0806    48.3318 C1            1 RES     
    1469 C1          94.1326   -56.2671    48.7923 C1            1 RES     
    1470 N4          95.2301   -55.6820    48.2496 N4            1 RES     
    1471 S2          96.4600   -56.3075    49.1596 S2            1 RES     
    1472 N4          95.6908   -57.3032    50.2293 N4            1 RES     
    1473 C1          94.3921   -57.1591    49.8712 C1            1 RES     
    1474 C1          93.3452   -57.8359    50.4821 C1            1 RES     
    1475 H5          90.7640   -56.7143    48.6766 H5            1 RES     
    1476 C0          92.6785   -51.0601    45.1412 C0            1 RES     
    1477 C0          93.4130   -50.3785    46.3491 C0            1 RES     
    1478 C0          92.4914   -49.2539    46.9484 C0            1 RES     
    1479 C0          92.3358   -47.8898    46.2129 C0            1 RES     
    1480 C0          91.6314   -47.8492    44.8408 C0            1 RES     
    1481 C0          90.2115   -48.4463    44.8031 C0            1 RES     
    1482 C0          89.2181   -47.7036    45.7064 C0            1 RES     
    1483 C0          87.8191   -48.3036    45.5834 C0            1 RES     
    1484 C0          94.8068   -49.7469    46.0698 C0            1 RES     
    1485 C0          95.9927   -50.7031    46.1565 C0            1 RES     
    1486 C0          97.2935   -49.9910    45.7417 C0            1 RES     
    1487 C0          98.5021   -50.9399    45.7604 C0            1 RES     
    1488 C0          99.7293   -50.2691    45.1189 C0            1 RES     
    1489 C0         100.9237   -51.2206    44.9201 C0            1 RES     
    1490 C0         100.6330   -52.3267    43.8861 C0            1 RES     
    1491 C0         101.8651   -53.1850    43.6176 C0            1 RES     
    1492 H6          92.6599   -50.3478    44.3045 H6            1 RES     
    1493 H6          91.6386   -51.1633    45.5225 H6            1 RES     
    1494 H6          93.4917   -51.1254    47.1701 H6            1 RES     
    1495 H6          92.9333   -48.9911    47.9359 H6            1 RES     
    1496 H6          91.4860   -49.6661    47.1808 H6            1 RES     
    1497 H6          93.3347   -47.4191    46.0961 H6            1 RES     
    1498 H6          91.7633   -47.2258    46.8948 H6            1 RES     
    1499 H6          92.2601   -48.3402    44.0798 H6            1 RES     
    1500 H6          91.5706   -46.7868    44.5184 H6            1 RES     
    1501 H6          90.2335   -49.5159    45.0820 H6            1 RES     
    1502 H6          89.8482   -48.3813    43.7539 H6            1 RES     
    1503 H6          89.5351   -47.7738    46.7675 H6            1 RES     
    1504 H6          89.1766   -46.6329    45.4107 H6            1 RES     
    1505 H6          87.4584   -48.2342    44.5349 H6            1 RES     
    1506 H6          87.1158   -47.7474    46.2383 H6            1 RES     
    1507 H6          87.8283   -49.3700    45.8953 H6            1 RES     
    1508 H6          95.0300   -48.9884    46.8538 H6            1 RES     
    1509 H6          94.7684   -49.2177    45.0921 H6            1 RES     
    1510 H6          96.0805   -51.1060    47.1890 H6            1 RES     
    1511 H6          95.8169   -51.5302    45.4823 H6            1 RES     
    1512 H6          97.1504   -49.6208    44.7018 H6            1 RES     
    1513 H6          97.4950   -49.1192    46.4017 H6            1 RES     
    1514 H6          98.7310   -51.2649    46.7982 H6            1 RES     
    1515 H6          98.2423   -51.8383    45.1872 H6            1 RES     
    1516 H6          99.4587   -49.8570    44.1213 H6            1 RES     
    1517 H6         100.0417   -49.4196    45.7654 H6            1 RES     
    1518 H6         101.2237   -51.6666    45.8924 H6            1 RES     
    1519 H6         101.7718   -50.6115    44.5380 H6            1 RES     
    1520 H6         100.3143   -51.8632    42.9260 H6            1 RES     
    1521 H6          99.8301   -52.9974    44.2447 H6            1 RES     
    1522 H6         101.6169   -53.9616    42.8656 H6            1 RES     
    1523 H6         102.6939   -52.5597    43.2220 H6            1 RES     
    1524 H6         102.1963   -53.6865    44.5531 H6            1 RES     
    1525 C0          94.2131   -52.5914    43.5750 C0            1 RES     
    1526 C0          95.4352   -53.5338    43.8343 C0            1 RES     
    1527 C0          96.7339   -52.9300    43.1948 C0            1 RES     
    1528 C0          96.9655   -52.9594    41.6639 C0            1 RES     
    1529 C0          96.0858   -52.0512    40.7806 C0            1 RES     
    1530 C0          96.0979   -50.5504    41.1400 C0            1 RES     
    1531 C0          97.4891   -49.9062    41.0809 C0            1 RES     
    1532 C0          97.4044   -48.4143    41.3972 C0            1 RES     
    1533 C0          95.3179   -55.0107    43.3554 C0            1 RES     
    1534 C0          94.3126   -55.8580    44.1170 C0            1 RES     
    1535 C0          94.3755   -57.3353    43.7270 C0            1 RES     
    1536 C0          93.3723   -58.1301    44.5706 C0            1 RES     
    1537 C0          93.4017   -59.6227    44.2201 C0            1 RES     
    1538 C0          92.4525   -60.4589    45.0953 C0            1 RES     
    1539 C0          90.9734   -60.0814    44.9156 C0            1 RES     
    1540 C0          90.0718   -60.9839    45.7510 C0            1 RES     
    1541 H6          93.9114   -52.7606    42.5267 H6            1 RES     
    1542 H6          94.5925   -51.5575    43.5771 H6            1 RES     
    1543 H6          95.6272   -53.5495    44.9250 H6            1 RES     
    1544 H6          97.5770   -53.5160    43.6210 H6            1 RES     
    1545 H6          96.8699   -51.8859    43.5237 H6            1 RES     
    1546 H6          96.8999   -54.0025    41.2931 H6            1 RES     
    1547 H6          98.0184   -52.6447    41.4983 H6            1 RES     
    1548 H6          95.0442   -52.4145    40.7842 H6            1 RES     
    1549 H6          96.4419   -52.1594    39.7331 H6            1 RES     
    1550 H6          95.6785   -50.3861    42.1480 H6            1 RES     
    1551 H6          95.4329   -50.0296    40.4162 H6            1 RES     
    1552 H6          98.1631   -50.3790    41.8257 H6            1 RES     
    1553 H6          97.9206   -50.0381    40.0653 H6            1 RES     
    1554 H6          96.7527   -47.8991    40.6592 H6            1 RES     
    1555 H6          98.4174   -47.9630    41.3536 H6            1 RES     
    1556 H6          96.9899   -48.2582    42.4168 H6            1 RES     
    1557 H6          96.3081   -55.4912    43.5207 H6            1 RES     
    1558 H6          95.0891   -55.0506    42.2683 H6            1 RES     
    1559 H6          94.5554   -55.7931    45.1963 H6            1 RES     
    1560 H6          93.2978   -55.4877    43.8977 H6            1 RES     
    1561 H6          94.1386   -57.4481    42.6469 H6            1 RES     
    1562 H6          95.4007   -57.7268    43.9150 H6            1 RES     
    1563 H6          93.6201   -58.0065    45.6487 H6            1 RES     
    1564 H6          92.3598   -57.7161    44.3842 H6            1 RES     
    1565 H6          93.1410   -59.7626    43.1484 H6            1 RES     
    1566 H6          94.4342   -60.0042    44.3801 H6            1 RES     
    1567 H6          92.7409   -60.3481    46.1641 H6            1 RES     
    1568 H6          92.5838   -61.5255    44.8094 H6            1 RES     
    1569 H6          90.6910   -60.1824    43.8453 H6            1 RES     
    1570 H6          90.7973   -59.0343    45.2380 H6            1 RES     
    1571 H6          89.0116   -60.6892    45.6018 H6            1 RES     
    1572 H6          90.1938   -62.0438    45.4421 H6            1 RES     
    1573 H6          90.3206   -60.8851    46.8293 H6            1 RES     
    1574 C0          95.0498   -59.8772    55.1878 C0            1 RES     
    1575 C1          94.4226   -59.6710    53.8031 C1            1 RES     
    1576 C1          93.7583   -60.7601    53.3569 C1            1 RES     
    1577 S2          93.0591   -60.5102    51.8589 S2            1 RES     
    1578 C1          93.6297   -58.9048    51.7730 C1            1 RES     
    1579 C1          94.3601   -58.5880    52.9242 C1            1 RES     
    1580 C1          93.8710   -61.7792    54.3364 C1            1 RES     
    1581 C1          94.6260   -61.3378    55.3848 C1            1 RES     
    1582 C1          94.8051   -62.3161    56.3682 C1            1 RES     
    1583 C1          94.1591   -63.5286    56.0147 C1            1 RES     
    1584 S2          93.3537   -63.3445    54.5207 S2            1 RES     
    1585 H3          94.8187   -57.6268    53.1099 H3            1 RES     
    1586 H3          95.3787   -62.1485    57.2673 H3            1 RES     
    1587 N4          93.1841   -67.0013    57.1132 N4            1 RES     
    1588 C1          93.1816   -65.7937    56.4799 C1            1 RES     
    1589 C1          94.1760   -64.8240    56.7460 C1            1 RES     
    1590 C1          95.1745   -65.1684    57.6749 C1            1 RES     
    1591 N4          96.2247   -64.3763    58.0082 N4            1 RES     
    1592 S2          97.0615   -65.3174    59.0787 S2            1 RES     
    1593 N4          96.1720   -66.7065    59.1602 N4            1 RES     
    1594 C1          95.1553   -66.4457    58.3036 C1            1 RES     
    1595 C1          94.1421   -67.3493    58.0132 C1            1 RES     
    1596 H5          92.3870   -65.5918    55.7747 H5            1 RES     
    1597 C0          94.2166   -58.9080    56.1110 C0            1 RES     
    1598 C0          94.1835   -58.8296    57.6781 C0            1 RES     
    1599 C0          92.8566   -58.1190    58.1337 C0            1 RES     
    1600 C0          92.7087   -56.5736    58.0068 C0            1 RES     
    1601 C0          92.6662   -55.9331    56.6038 C0            1 RES     
    1602 C0          91.5836   -56.4809    55.6540 C0            1 RES     
    1603 C0          90.1557   -56.2498    56.1659 C0            1 RES     
    1604 C0          89.1283   -56.7610    55.1584 C0            1 RES     
    1605 C0          95.3696   -58.1084    58.3798 C0            1 RES     
    1606 C0          96.5962   -58.9731    58.6557 C0            1 RES     
    1607 C0          97.7394   -58.1209    59.2370 C0            1 RES     
    1608 C0          99.0130   -58.9478    59.4734 C0            1 RES     
    1609 C0         100.1980   -58.0316    59.8251 C0            1 RES     
    1610 C0         101.5520   -58.7629    59.8830 C0            1 RES     
    1611 C0         102.0000   -59.2881    58.5044 C0            1 RES     
    1612 C0         103.3944   -59.9039    58.5619 C0            1 RES     
    1613 H6          94.3863   -57.8949    55.7201 H6            1 RES     
    1614 H6          93.1708   -59.1961    55.8649 H6            1 RES     
    1615 H6          94.0812   -59.8651    58.0725 H6            1 RES     
    1616 H6          92.7609   -58.3211    59.2243 H6            1 RES     
    1617 H6          91.9775   -58.6145    57.6684 H6            1 RES     
    1618 H6          93.5191   -56.0784    58.5820 H6            1 RES     
    1619 H6          91.7612   -56.3031    58.5193 H6            1 RES     
    1620 H6          93.6552   -56.0124    56.1233 H6            1 RES     
    1621 H6          92.4974   -54.8414    56.7307 H6            1 RES     
    1622 H6          91.7386   -57.5601    55.4713 H6            1 RES     
    1623 H6          91.6962   -55.9567    54.6795 H6            1 RES     
    1624 H6          89.9988   -56.7850    57.1253 H6            1 RES     
    1625 H6          89.9905   -55.1623    56.3265 H6            1 RES     
    1626 H6          89.2419   -56.2333    54.1873 H6            1 RES     
    1627 H6          88.1036   -56.5773    55.5445 H6            1 RES     
    1628 H6          89.2574   -57.8527    54.9965 H6            1 RES     
    1629 H6          95.0515   -57.7815    59.3956 H6            1 RES     
    1630 H6          95.6254   -57.1953    57.7982 H6            1 RES     
    1631 H6          96.3303   -59.7972    59.3530 H6            1 RES     
    1632 H6          96.9254   -59.4097    57.7226 H6            1 RES     
    1633 H6          97.9680   -57.3238    58.4944 H6            1 RES     
    1634 H6          97.4281   -57.6374    60.1886 H6            1 RES     
    1635 H6          98.8496   -59.7016    60.2734 H6            1 RES     
    1636 H6          99.2429   -59.4956    58.5512 H6            1 RES     
    1637 H6         100.2872   -57.2192    59.0700 H6            1 RES     
    1638 H6          99.9946   -57.5594    60.8115 H6            1 RES     
    1639 H6         101.5073   -59.5933    60.6197 H6            1 RES     
    1640 H6         102.3105   -58.0276    60.2303 H6            1 RES     
    1641 H6         102.0190   -58.4480    57.7751 H6            1 RES     
    1642 H6         101.3057   -60.0666    58.1370 H6            1 RES     
    1643 H6         103.6814   -60.2619    57.5521 H6            1 RES     
    1644 H6         104.1378   -59.1485    58.8953 H6            1 RES     
    1645 H6         103.4057   -60.7665    59.2634 H6            1 RES     
    1646 C0          96.5863   -59.5300    55.0382 C0            1 RES     
    1647 C0          97.7679   -60.4596    55.4724 C0            1 RES     
    1648 C0          99.0304   -59.6024    55.8347 C0            1 RES     
    1649 C0          99.8897   -58.9311    54.7350 C0            1 RES     
    1650 C0          99.2803   -57.7420    53.9647 C0            1 RES     
    1651 C0          98.7815   -56.5661    54.8308 C0            1 RES     
    1652 C0          99.8689   -55.9332    55.7088 C0            1 RES     
    1653 C0          99.3060   -54.7480    56.4907 C0            1 RES     
    1654 C0          98.2197   -61.5625    54.4705 C0            1 RES     
    1655 C0          97.2195   -62.6854    54.2529 C0            1 RES     
    1656 C0          97.7911   -63.8248    53.4082 C0            1 RES     
    1657 C0          96.7454   -64.9379    53.2760 C0            1 RES     
    1658 C0          97.2747   -66.1095    52.4402 C0            1 RES     
    1659 C0          96.2726   -67.2726    52.3431 C0            1 RES     
    1660 C0          94.9670   -66.8884    51.6288 C0            1 RES     
    1661 C0          94.0391   -68.0915    51.4981 C0            1 RES     
    1662 H6          96.8079   -59.2137    54.0041 H6            1 RES     
    1663 H6          96.6711   -58.6005    55.6226 H6            1 RES     
    1664 H6          97.4762   -60.9625    56.4151 H6            1 RES     
    1665 H6          99.7253   -60.2984    56.3529 H6            1 RES     
    1666 H6          98.7614   -58.8171    56.5611 H6            1 RES     
    1667 H6         100.2377   -59.6950    54.0103 H6            1 RES     
    1668 H6         100.8051   -58.5516    55.2381 H6            1 RES     
    1669 H6          98.4552   -58.0913    53.3212 H6            1 RES     
    1670 H6         100.0619   -57.3567    53.2744 H6            1 RES     
    1671 H6          97.9482   -56.8849    55.4809 H6            1 RES     
    1672 H6          98.3840   -55.7896    54.1405 H6            1 RES     
    1673 H6         100.2539   -56.6762    56.4384 H6            1 RES     
    1674 H6         100.7084   -55.5817    55.0711 H6            1 RES     
    1675 H6          98.9276   -53.9697    55.7937 H6            1 RES     
    1676 H6         100.1023   -54.3027    57.1228 H6            1 RES     
    1677 H6          98.4740   -55.0793    57.1491 H6            1 RES     
    1678 H6          99.1288   -62.0432    54.8963 H6            1 RES     
    1679 H6          98.4908   -61.1118    53.4913 H6            1 RES     
    1680 H6          96.9579   -63.1101    55.2425 H6            1 RES     
    1681 H6          96.3380   -62.2793    53.7303 H6            1 RES     
    1682 H6          98.0695   -63.4424    52.4024 H6            1 RES     
    1683 H6          98.7001   -64.2355    53.9031 H6            1 RES     
    1684 H6          96.4748   -65.3095    54.2898 H6            1 RES     
    1685 H6          95.8416   -64.5076    52.7973 H6            1 RES     
    1686 H6          97.5352   -65.7556    51.4189 H6            1 RES     
    1687 H6          98.1995   -66.4984    52.9205 H6            1 RES     
    1688 H6          96.0445   -67.6504    53.3643 H6            1 RES     
    1689 H6          96.7622   -68.0913    51.7716 H6            1 RES     
    1690 H6          95.1987   -66.5010    50.6130 H6            1 RES     
    1691 H6          94.4273   -66.1046    52.1996 H6            1 RES     
    1692 H6          93.1062   -67.7855    50.9793 H6            1 RES     
    1693 H6          94.5288   -68.8941    50.9066 H6            1 RES     
    1694 H6          93.7752   -68.4854    52.5028 H6            1 RES     
    1695 C0          94.1187   -71.2584    61.7462 C0            1 RES     
    1696 C1          94.1096   -70.4627    60.4346 C1            1 RES     
    1697 C1          93.9775   -71.2472    59.3420 C1            1 RES     
    1698 S2          93.9433   -70.3629    57.9234 S2            1 RES     
    1699 C1          94.0967   -68.8796    58.7521 C1            1 RES     
    1700 C1          94.1707   -69.1011    60.1321 C1            1 RES     
    1701 C1          93.9024   -72.5962    59.7724 C1            1 RES     
    1702 C1          94.0119   -72.6595    61.1318 C1            1 RES     
    1703 C1          93.9834   -73.9724    61.6132 C1            1 RES     
    1704 C1          93.8574   -74.9083    60.5547 C1            1 RES     
    1705 S2          93.7442   -74.0870    59.0623 S2            1 RES     
    1706 H3          94.2641   -68.3175    60.8711 H3            1 RES     
    1707 H3          94.0630   -74.2164    62.6619 H3            1 RES     
    1708 N4          93.3646   -78.5237    59.6042 N4            1 RES     
    1709 C1          93.3442   -77.1606    59.5716 C1            1 RES     
    1710 C1          93.8695   -76.3936    60.6374 C1            1 RES     
    1711 C1          94.4293   -77.0980    61.7186 C1            1 RES     
    1712 N4          95.0171   -76.5184    62.7956 N4            1 RES     
    1713 S2          95.5174   -77.8226    63.6793 S2            1 RES     
    1714 N4          95.0358   -79.1183    62.7756 N4            1 RES     
    1715 C1          94.4492   -78.5216    61.7101 C1            1 RES     
    1716 C1          93.9021   -79.2191    60.6416 C1            1 RES     
    1717 H5          92.9014   -76.6798    58.7101 H5            1 RES     
    1718 C0          92.7684   -70.8307    62.4388 C0            1 RES     
    1719 C0          92.0556   -71.4702    63.6821 C0            1 RES     
    1720 C0          90.5340   -71.0729    63.6684 C0            1 RES     
    1721 C0          90.0914   -69.6410    64.0926 C0            1 RES     
    1722 C0          90.4976   -68.4364    63.2183 C0            1 RES     
    1723 C0          90.0853   -68.5200    61.7360 C0            1 RES     
    1724 C0          88.5655   -68.5781    61.5326 C0            1 RES     
    1725 C0          88.2172   -68.6018    60.0459 C0            1 RES     
    1726 C0          92.6225   -71.1174    65.0870 C0            1 RES     
    1727 C0          93.7825   -71.9851    65.5663 C0            1 RES     
    1728 C0          94.3319   -71.4621    66.9063 C0            1 RES     
    1729 C0          95.5407   -72.2772    67.3921 C0            1 RES     
    1730 C0          96.2089   -71.5923    68.5970 C0            1 RES     
    1731 C0          97.5411   -72.2396    69.0187 C0            1 RES     
    1732 C0          98.6426   -72.0743    67.9526 C0            1 RES     
    1733 C0          99.9827   -72.6175    68.4381 C0            1 RES     
    1734 H6          92.8419   -69.7467    62.6051 H6            1 RES     
    1735 H6          92.0277   -71.0001    61.6264 H6            1 RES     
    1736 H6          92.0449   -72.5742    63.5428 H6            1 RES     
    1737 H6          90.0354   -71.7485    64.3996 H6            1 RES     
    1738 H6          90.0813   -71.3244    62.6853 H6            1 RES     
    1739 H6          90.4374   -69.4411    65.1285 H6            1 RES     
    1740 H6          88.9817   -69.6531    64.1383 H6            1 RES     
    1741 H6          91.5846   -68.2673    63.2914 H6            1 RES     
    1742 H6          90.0368   -67.5243    63.6565 H6            1 RES     
    1743 H6          90.5548   -69.3962    61.2522 H6            1 RES     
    1744 H6          90.4728   -67.6095    61.2283 H6            1 RES     
    1745 H6          88.1484   -69.4927    62.0026 H6            1 RES     
    1746 H6          88.0945   -67.6849    61.9973 H6            1 RES     
    1747 H6          88.6032   -67.6895    59.5428 H6            1 RES     
    1748 H6          87.1144   -68.6360    59.9216 H6            1 RES     
    1749 H6          88.6582   -69.4990    59.5610 H6            1 RES     
    1750 H6          91.8356   -71.2925    65.8551 H6            1 RES     
    1751 H6          92.8758   -70.0344    65.1070 H6            1 RES     
    1752 H6          93.4500   -73.0413    65.6665 H6            1 RES     
    1753 H6          94.5700   -71.9450    64.8262 H6            1 RES     
    1754 H6          94.6574   -70.4104    66.7421 H6            1 RES     
    1755 H6          93.5410   -71.4684    67.6878 H6            1 RES     
    1756 H6          95.2375   -73.3148    67.6497 H6            1 RES     
    1757 H6          96.2633   -72.3433    66.5694 H6            1 RES     
    1758 H6          96.4143   -70.5244    68.3611 H6            1 RES     
    1759 H6          95.5002   -71.6219    69.4538 H6            1 RES     
    1760 H6          97.3867   -73.3141    69.2547 H6            1 RES     
    1761 H6          97.8815   -71.7236    69.9430 H6            1 RES     
    1762 H6          98.7692   -70.9950    67.7136 H6            1 RES     
    1763 H6          98.3770   -72.6181    67.0270 H6            1 RES     
    1764 H6         100.7473   -72.4735    67.6476 H6            1 RES     
    1765 H6         100.3111   -72.0777    69.3521 H6            1 RES     
    1766 H6          99.8999   -73.7035    68.6615 H6            1 RES     
    1767 C0          95.4420   -70.8461    62.5093 C0            1 RES     
    1768 C0          96.5110   -71.8443    63.0659 C0            1 RES     
    1769 C0          97.2563   -71.2150    64.2941 C0            1 RES     
    1770 C0          98.3144   -70.0996    64.1079 C0            1 RES     
    1771 C0          97.8264   -68.7049    63.6657 C0            1 RES     
    1772 C0          96.7435   -68.0595    64.5558 C0            1 RES     
    1773 C0          97.1703   -67.8674    66.0169 C0            1 RES     
    1774 C0          96.0648   -67.1771    66.8134 C0            1 RES     
    1775 C0          97.5931   -72.3644    62.0747 C0            1 RES     
    1776 C0          97.0786   -73.2899    60.9851 C0            1 RES     
    1777 C0          98.2075   -73.9109    60.1613 C0            1 RES     
    1778 C0          97.6146   -74.8674    59.1204 C0            1 RES     
    1779 C0          98.7103   -75.5220    58.2705 C0            1 RES     
    1780 C0          98.1525   -76.5380    57.2592 C0            1 RES     
    1781 C0          97.2238   -75.9023    56.2123 C0            1 RES     
    1782 C0          96.7546   -76.9371    55.1952 C0            1 RES     
    1783 H6          95.9995   -70.0914    61.9278 H6            1 RES     
    1784 H6          95.0470   -70.2796    63.3672 H6            1 RES     
    1785 H6          95.9754   -72.7256    63.4699 H6            1 RES     
    1786 H6          97.8089   -72.0541    64.7701 H6            1 RES     
    1787 H6          96.5263   -70.8495    65.0358 H6            1 RES     
    1788 H6          99.1077   -70.4450    63.4142 H6            1 RES     
    1789 H6          98.8103   -69.9678    65.0937 H6            1 RES     
    1790 H6          97.4617   -68.7442    62.6253 H6            1 RES     
    1791 H6          98.7107   -68.0314    63.6526 H6            1 RES     
    1792 H6          95.8151   -68.6568    64.5379 H6            1 RES     
    1793 H6          96.5047   -67.0641    64.1204 H6            1 RES     
    1794 H6          97.3735   -68.8510    66.4900 H6            1 RES     
    1795 H6          98.0909   -67.2465    66.0602 H6            1 RES     
    1796 H6          95.8452   -66.1766    66.3826 H6            1 RES     
    1797 H6          96.3863   -67.0477    67.8678 H6            1 RES     
    1798 H6          95.1371   -67.7892    66.7978 H6            1 RES     
    1799 H6          98.3209   -72.9647    62.6653 H6            1 RES     
    1800 H6          98.1386   -71.5135    61.6121 H6            1 RES     
    1801 H6          96.5309   -74.1221    61.4705 H6            1 RES     
    1802 H6          96.4338   -72.7117    60.3033 H6            1 RES     
    1803 H6          98.7868   -73.1087    59.6550 H6            1 RES     
    1804 H6          98.8891   -74.4801    60.8329 H6            1 RES     
    1805 H6          97.0360   -75.6633    59.6409 H6            1 RES     
    1806 H6          96.9259   -74.2879    58.4714 H6            1 RES     
    1807 H6          99.2873   -74.7387    57.7324 H6            1 RES     
    1808 H6          99.4068   -76.0649    58.9469 H6            1 RES     
    1809 H6          97.6094   -77.3419    57.8037 H6            1 RES     
    1810 H6          99.0175   -76.9984    56.7333 H6            1 RES     
    1811 H6          97.7654   -75.0922    55.6775 H6            1 RES     
    1812 H6          96.3237   -75.4739    56.6998 H6            1 RES     
    1813 H6          96.0871   -76.4509    54.4528 H6            1 RES     
    1814 H6          97.6243   -77.3740    54.6599 H6            1 RES     
    1815 H6          96.1911   -77.7486    55.7033 H6            1 RES     
    1816 C0          93.2259   -84.3931    62.0520 C0            1 RES     
    1817 C1          93.5857   -83.0908    61.3253 C1            1 RES     
    1818 C1          94.1206   -83.2991    60.1018 C1            1 RES     
    1819 S2          94.4828   -81.8701    59.3133 S2            1 RES     
    1820 C1          93.9125   -80.9187    60.6094 C1            1 RES     
    1821 C1          93.4439   -81.7385    61.6426 C1            1 RES     
    1822 C1          94.1929   -84.6983    59.8831 C1            1 RES     
    1823 C1          93.7266   -85.3670    60.9782 C1            1 RES     
    1824 C1          93.8093   -86.7559    60.8360 C1            1 RES     
    1825 C1          94.3710   -87.1146    59.5838 C1            1 RES     
    1826 S2          94.7106   -85.7100    58.6747 S2            1 RES     
    1827 H3          93.0255   -81.3719    62.5696 H3            1 RES     
    1828 H3          93.4916   -87.4458    61.6033 H3            1 RES     
    1829 N4          95.2034   -89.9196    57.2055 N4            1 RES     
    1830 C1          94.8754   -88.6900    57.6953 C1            1 RES     
    1831 C1          94.6996   -88.4761    59.0822 C1            1 RES     
    1832 C1          94.8971   -89.5802    59.9309 C1            1 RES     
    1833 N4          94.8155   -89.5371    61.2847 N4            1 RES     
    1834 S2          95.1874   -91.0881    61.7185 S2            1 RES     
    1835 N4          95.4583   -91.8457    60.2762 N4            1 RES     
    1836 C1          95.2564   -90.8453    59.3853 C1            1 RES     
    1837 C1          95.3978   -90.9965    58.0125 C1            1 RES     
    1838 H5          94.7401   -87.8818    56.9896 H5            1 RES     
    1839 C0          91.6506   -84.3558    62.1038 C0            1 RES     
    1840 C0          90.6519   -85.5045    62.4862 C0            1 RES     
    1841 C0          89.2340   -85.1787    61.8890 C0            1 RES     
    1842 C0          88.3269   -84.1040    62.5584 C0            1 RES     
    1843 C0          88.7667   -82.6253    62.5342 C0            1 RES     
    1844 C0          89.0557   -82.0390    61.1389 C0            1 RES     
    1845 C0          87.8281   -82.0335    60.2184 C0            1 RES     
    1846 C0          88.1606   -81.3903    58.8738 C0            1 RES     
    1847 C0          90.4669   -85.8123    63.9996 C0            1 RES     
    1848 C0          91.4831   -86.7762    64.6050 C0            1 RES     
    1849 C0          91.2699   -86.9032    66.1247 C0            1 RES     
    1850 C0          92.3135   -87.8221    66.7791 C0            1 RES     
    1851 C0          92.2229   -87.7410    68.3129 C0            1 RES     
    1852 C0          93.3616   -88.4784    69.0417 C0            1 RES     
    1853 C0          94.7372   -87.8238    68.8045 C0            1 RES     
    1854 C0          95.8310   -88.4971    69.6274 C0            1 RES     
    1855 H6          91.3865   -83.4628    62.6876 H6            1 RES     
    1856 H6          91.3887   -84.1564    61.0413 H6            1 RES     
    1857 H6          90.9642   -86.4260    61.9462 H6            1 RES     
    1858 H6          88.6486   -86.1231    61.9598 H6            1 RES     
    1859 H6          89.3157   -84.9688    60.8009 H6            1 RES     
    1860 H6          88.1419   -84.3862    63.6162 H6            1 RES     
    1861 H6          87.3409   -84.1608    62.0502 H6            1 RES     
    1862 H6          89.6450   -82.4828    63.1851 H6            1 RES     
    1863 H6          87.9613   -82.0207    63.0055 H6            1 RES     
    1864 H6          89.8795   -82.5907    60.6499 H6            1 RES     
    1865 H6          89.3933   -80.9887    61.2799 H6            1 RES     
    1866 H6          87.4814   -83.0710    60.0318 H6            1 RES     
    1867 H6          87.0070   -81.4579    60.6982 H6            1 RES     
    1868 H6          88.4946   -80.3406    59.0183 H6            1 RES     
    1869 H6          87.2580   -81.3898    58.2271 H6            1 RES     
    1870 H6          88.9649   -81.9609    58.3620 H6            1 RES     
    1871 H6          89.4950   -86.3337    64.1522 H6            1 RES     
    1872 H6          90.4224   -84.8499    64.5558 H6            1 RES     
    1873 H6          91.4011   -87.7708    64.1149 H6            1 RES     
    1874 H6          92.4758   -86.3877    64.4227 H6            1 RES     
    1875 H6          91.3740   -85.8838    66.5594 H6            1 RES     
    1876 H6          90.2487   -87.2803    66.3508 H6            1 RES     
    1877 H6          92.1858   -88.8706    66.4339 H6            1 RES     
    1878 H6          93.3097   -87.4925    66.4594 H6            1 RES     
    1879 H6          92.2487   -86.6775    68.6392 H6            1 RES     
    1880 H6          91.2470   -88.1711    68.6291 H6            1 RES     
    1881 H6          93.3819   -89.5468    68.7377 H6            1 RES     
    1882 H6          93.1439   -88.4286    70.1310 H6            1 RES     
    1883 H6          94.6927   -86.7505    69.0945 H6            1 RES     
    1884 H6          95.0274   -87.8962    67.7398 H6            1 RES     
    1885 H6          96.8004   -87.9937    69.4344 H6            1 RES     
    1886 H6          95.6016   -88.4216    70.7119 H6            1 RES     
    1887 H6          95.9219   -89.5683    69.3438 H6            1 RES     
    1888 C0          93.9601   -84.3403    63.4526 C0            1 RES     
    1889 C0          94.8949   -85.4577    64.0241 C0            1 RES     
    1890 C0          94.8752   -85.4350    65.5922 C0            1 RES     
    1891 C0          95.6134   -84.3321    66.3903 C0            1 RES     
    1892 C0          95.0434   -82.8997    66.3437 C0            1 RES     
    1893 C0          93.5659   -82.7514    66.7643 C0            1 RES     
    1894 C0          93.2729   -83.2311    68.1918 C0            1 RES     
    1895 C0          91.8048   -83.0010    68.5454 C0            1 RES     
    1896 C0          96.3848   -85.4484    63.5721 C0            1 RES     
    1897 C0          96.6179   -85.7927    62.1106 C0            1 RES     
    1898 C0          98.1015   -85.9481    61.7738 C0            1 RES     
    1899 C0          98.2527   -86.3438    60.3006 C0            1 RES     
    1900 C0          99.7264   -86.5182    59.9142 C0            1 RES     
    1901 C0          99.9099   -86.9794    58.4583 C0            1 RES     
    1902 C0          99.3920   -85.9604    57.4308 C0            1 RES     
    1903 C0          99.6598   -86.4338    56.0061 C0            1 RES     
    1904 H6          94.5146   -83.3918    63.5583 H6            1 RES     
    1905 H6          93.1162   -84.2322    64.1518 H6            1 RES     
    1906 H6          94.4650   -86.4384    63.7410 H6            1 RES     
    1907 H6          95.3552   -86.3857    65.9108 H6            1 RES     
    1908 H6          93.8356   -85.4611    65.9601 H6            1 RES     
    1909 H6          96.6831   -84.3083    66.0986 H6            1 RES     
    1910 H6          95.5969   -84.6490    67.4553 H6            1 RES     
    1911 H6          95.1758   -82.4726    65.3352 H6            1 RES     
    1912 H6          95.6614   -82.2730    67.0227 H6            1 RES     
    1913 H6          92.9045   -83.2971    66.0688 H6            1 RES     
    1914 H6          93.3056   -81.6725    66.6903 H6            1 RES     
    1915 H6          93.4833   -84.3174    68.2826 H6            1 RES     
    1916 H6          93.9112   -82.6760    68.9125 H6            1 RES     
    1917 H6          91.5580   -81.9192    68.4862 H6            1 RES     
    1918 H6          91.6073   -83.3551    69.5785 H6            1 RES     
    1919 H6          91.1465   -83.5609    67.8463 H6            1 RES     
    1920 H6          96.9125   -86.2342    64.1577 H6            1 RES     
    1921 H6          96.8555   -84.4681    63.8023 H6            1 RES     
    1922 H6          96.1311   -86.7667    61.9046 H6            1 RES     
    1923 H6          96.2066   -84.9835    61.4853 H6            1 RES     
    1924 H6          98.6318   -84.9907    61.9674 H6            1 RES     
    1925 H6          98.5470   -86.7438    62.4126 H6            1 RES     
    1926 H6          97.7155   -87.3020    60.1209 H6            1 RES     
    1927 H6          97.7889   -85.5494    59.6801 H6            1 RES     
    1928 H6         100.2728   -85.5633    60.0745 H6            1 RES     
    1929 H6         100.1768   -87.2921    60.5741 H6            1 RES     
    1930 H6          99.3954   -87.9549    58.3117 H6            1 RES     
    1931 H6         100.9983   -87.1324    58.2888 H6            1 RES     
    1932 H6          99.8996   -84.9840    57.5866 H6            1 RES     
    1933 H6          98.2968   -85.8194    57.5408 H6            1 RES     
    1934 H6          99.2763   -85.6799    55.2867 H6            1 RES     
    1935 H6         100.7507   -86.5615    55.8406 H6            1 RES     
    1936 H6          99.1447   -87.4000    55.8181 H6            1 RES     
    1937 C0          95.4381   -96.2630    56.7962 C0            1 RES     
    1938 C1          95.7514   -94.7650    56.9030 C1            1 RES     
    1939 C1          96.7877   -94.3853    56.1230 C1            1 RES     
    1940 S2          97.0992   -92.7463    56.2312 S2            1 RES     
    1941 C1          95.8245   -92.4972    57.3373 C1            1 RES     
    1942 C1          95.1714   -93.7060    57.6040 C1            1 RES     
    1943 C1          97.2763   -95.5323    55.4473 C1            1 RES     
    1944 C1          96.5628   -96.6344    55.8220 C1            1 RES     
    1945 C1          97.0256   -97.8065    55.2154 C1            1 RES     
    1946 C1          98.1333   -97.5473    54.3679 C1            1 RES     
    1947 S2          98.4820   -95.8761    54.3612 S2            1 RES     
    1948 H3          94.3252   -93.8079    58.2691 H3            1 RES     
    1949 H3          96.5863   -98.7759    55.3969 H3            1 RES     
    1950 N4         100.5369   -98.9539    51.8260 N4            1 RES     
    1951 C1          99.7501   -98.0865    52.5246 C1            1 RES     
    1952 C1          98.9569   -98.5269    53.6095 C1            1 RES     
    1953 C1          99.0315   -99.8907    53.9457 C1            1 RES     
    1954 N4          98.3753  -100.4663    54.9846 N4            1 RES     
    1955 S2          98.8846  -102.0369    54.9079 S2            1 RES     
    1956 N4          99.9137  -102.0540    53.6163 N4            1 RES     
    1957 C1          99.8777  -100.7637    53.2049 C1            1 RES     
    1958 C1         100.6201  -100.2745    52.1385 C1            1 RES     
    1959 H5          99.7394   -97.0499    52.2168 H5            1 RES     
    1960 C0          94.0309   -96.2891    56.0856 C0            1 RES     
    1961 C0          93.2692   -97.5090    55.4575 C0            1 RES     
    1962 C0          92.2065   -96.9809    54.4254 C0            1 RES     
    1963 C0          90.8744   -96.3461    54.9238 C0            1 RES     
    1964 C0          90.9174   -95.0066    55.6884 C0            1 RES     
    1965 C0          91.6229   -93.8463    54.9604 C0            1 RES     
    1966 C0          90.9399   -93.4531    53.6438 C0            1 RES     
    1967 C0          91.6484   -92.2641    52.9986 C0            1 RES     
    1968 C0          92.5381   -98.4720    56.4361 C0            1 RES     
    1969 C0          93.3980   -99.5821    57.0334 C0            1 RES     
    1970 C0          92.5967  -100.3874    58.0728 C0            1 RES     
    1971 C0          93.4490  -101.4788    58.7392 C0            1 RES     
    1972 C0          92.6994  -102.1021    59.9296 C0            1 RES     
    1973 C0          93.5601  -103.0632    60.7705 C0            1 RES     
    1974 C0          94.7070  -102.3409    61.5053 C0            1 RES     
    1975 C0          95.4733  -103.2883    62.4229 C0            1 RES     
    1976 H6          93.3401   -95.7630    56.7593 H6            1 RES     
    1977 H6          94.2058   -95.6369    55.2017 H6            1 RES     
    1978 H6          93.9902   -98.0794    54.8306 H6            1 RES     
    1979 H6          91.8895   -97.8684    53.8326 H6            1 RES     
    1980 H6          92.6899   -96.2998    53.6925 H6            1 RES     
    1981 H6          90.3307   -97.0803    55.5549 H6            1 RES     
    1982 H6          90.2422   -96.1894    54.0241 H6            1 RES     
    1983 H6          91.3745   -95.1538    56.6808 H6            1 RES     
    1984 H6          89.8699   -94.6991    55.8996 H6            1 RES     
    1985 H6          92.6813   -94.0983    54.7646 H6            1 RES     
    1986 H6          91.6083   -92.9659    55.6398 H6            1 RES     
    1987 H6          90.9629   -94.3018    52.9292 H6            1 RES     
    1988 H6          89.8820   -93.1757    53.8429 H6            1 RES     
    1989 H6          91.6293   -91.3859    53.6788 H6            1 RES     
    1990 H6          91.1343   -91.9918    52.0529 H6            1 RES     
    1991 H6          92.7040   -92.5230    52.7682 H6            1 RES     
    1992 H6          91.7482   -99.0282    55.8825 H6            1 RES     
    1993 H6          92.0343   -97.8665    57.2216 H6            1 RES     
    1994 H6          93.7709  -100.2492    56.2258 H6            1 RES     
    1995 H6          94.2504   -99.1306    57.5225 H6            1 RES     
    1996 H6          92.2609   -99.6726    58.8573 H6            1 RES     
    1997 H6          91.6982  -100.8492    57.6085 H6            1 RES     
    1998 H6          93.7333  -102.2605    58.0023 H6            1 RES     
    1999 H6          94.3768  -101.0177    59.0997 H6            1 RES     
    2000 H6          92.3307  -101.3009    60.6079 H6            1 RES     
    2001 H6          91.8149  -102.6508    59.5376 H6            1 RES     
    2002 H6          93.9608  -103.8779    60.1302 H6            1 RES     
    2003 H6          92.8956  -103.5164    61.5383 H6            1 RES     
    2004 H6          94.2900  -101.5160    62.1248 H6            1 RES     
    2005 H6          95.4298  -101.9173    60.7833 H6            1 RES     
    2006 H6          96.2825  -102.7301    62.9366 H6            1 RES     
    2007 H6          94.7945  -103.7167    63.1911 H6            1 RES     
    2008 H6          95.9278  -104.1132    61.8318 H6            1 RES     
    2009 C0          95.4723   -96.8326    58.2720 C0            1 RES     
    2010 C0          96.3120   -98.0659    58.7440 C0            1 RES     
    2011 C0          95.6236   -98.7552    59.9732 C0            1 RES     
    2012 C0          95.6676   -98.1158    61.3831 C0            1 RES     
    2013 C0          94.8489   -96.8306    61.6214 C0            1 RES     
    2014 C0          93.3443   -96.9223    61.2904 C0            1 RES     
    2015 C0          92.5962   -98.0023    62.0829 C0            1 RES     
    2016 C0          91.1089   -97.9905    61.7353 C0            1 RES     
    2017 C0          97.8033   -97.8192    59.1172 C0            1 RES     
    2018 C0          98.7092   -97.4601    57.9514 C0            1 RES     
    2019 C0         100.1853   -97.4124    58.3484 C0            1 RES     
    2020 C0         101.0370   -97.0956    57.1138 C0            1 RES     
    2021 C0         102.5299   -97.0427    57.4598 C0            1 RES     
    2022 C0         103.4180   -96.7914    56.2293 C0            1 RES     
    2023 C0         103.1595   -95.4300    55.5642 C0            1 RES     
    2024 C0         104.1109   -95.2018    54.3945 C0            1 RES     
    2025 H6          95.6865   -96.0219    58.9900 H6            1 RES     
    2026 H6          94.4125   -97.0716    58.4520 H6            1 RES     
    2027 H6          96.2897   -98.8221    57.9351 H6            1 RES     
    2028 H6          96.1337   -99.7360    60.0901 H6            1 RES     
    2029 H6          94.5654   -98.9685    59.7465 H6            1 RES     
    2030 H6          96.7203   -97.9383    61.6833 H6            1 RES     
    2031 H6          95.2763   -98.8804    62.0882 H6            1 RES     
    2032 H6          95.2912   -95.9908    61.0594 H6            1 RES     
    2033 H6          94.9515   -96.5649    62.6959 H6            1 RES     
    2034 H6          93.1914   -97.1095    60.2131 H6            1 RES     
    2035 H6          92.8918   -95.9329    61.5216 H6            1 RES     
    2036 H6          92.9997   -99.0071    61.8377 H6            1 RES     
    2037 H6          92.7160   -97.8187    63.1723 H6            1 RES     
    2038 H6          90.6612   -97.0048    61.9859 H6            1 RES     
    2039 H6          90.5819   -98.7779    62.3133 H6            1 RES     
    2040 H6          90.9636   -98.1887    60.6513 H6            1 RES     
    2041 H6          98.2025   -98.7726    59.5302 H6            1 RES     
    2042 H6          97.8838   -97.0385    59.9043 H6            1 RES     
    2043 H6          98.6029   -98.2464    57.1778 H6            1 RES     
    2044 H6          98.4230   -96.4652    57.5729 H6            1 RES     
    2045 H6         100.3389   -96.6341    59.1270 H6            1 RES     
    2046 H6         100.4925   -98.4005    58.7594 H6            1 RES     
    2047 H6         100.8717   -97.8810    56.3426 H6            1 RES     
    2048 H6         100.7063   -96.1173    56.7079 H6            1 RES     
    2049 H6         102.7123   -96.2512    58.2191 H6            1 RES     
    2050 H6         102.8272   -98.0209    57.8980 H6            1 RES     
    2051 H6         103.2626   -97.6066    55.4883 H6            1 RES     
    2052 H6         104.4772   -96.8263    56.5663 H6            1 RES     
    2053 H6         103.3048   -94.6183    56.3095 H6            1 RES     
    2054 H6         102.1225   -95.3790    55.1726 H6            1 RES     
    2055 H6         103.9020   -94.2130    53.9343 H6            1 RES     
    2056 H6         105.1646   -95.2158    54.7456 H6            1 RES     
    2057 H6         103.9703   -95.9900    53.6243 H6            1 RES     
    2058 C0         102.4234  -104.4193    49.1745 C0            1 RES     
    2059 C1         102.2957  -103.1248    49.9878 C1            1 RES     
    2060 C1         103.4420  -102.4099    50.0260 C1            1 RES     
    2061 S2         103.2787  -100.9903    50.8939 S2            1 RES     
    2062 C1         101.6362  -101.2975    51.2380 C1            1 RES     
    2063 C1         101.2397  -102.5108    50.6639 C1            1 RES     
    2064 C1         104.4283  -103.1159    49.2914 C1            1 RES     
    2065 C1         103.9079  -104.2843    48.8139 C1            1 RES     
    2066 C1         104.8483  -105.0446    48.1113 C1            1 RES     
    2067 C1         106.1142  -104.4049    48.0848 C1            1 RES     
    2068 S2         106.0246  -102.9038    48.8930 S2            1 RES     
    2069 H3         100.2422  -102.9217    50.7351 H3            1 RES     
    2070 H3         104.6179  -106.0010    47.6666 H3            1 RES     
    2071 N4         109.6276  -104.4547    46.7171 N4            1 RES     
    2072 C1         108.4375  -104.0152    47.2170 C1            1 RES     
    2073 C1         107.3886  -104.9166    47.5127 C1            1 RES     
    2074 C1         107.6352  -106.2829    47.2871 C1            1 RES     
    2075 N4         106.7576  -107.2809    47.5612 N4            1 RES     
    2076 S2         107.6085  -108.6349    47.1434 S2            1 RES     
    2077 N4         109.0600  -108.0427    46.6238 N4            1 RES     
    2078 C1         108.8965  -106.7070    46.7808 C1            1 RES     
    2079 C1         109.8816  -105.7717    46.4937 C1            1 RES     
    2080 H5         108.3125  -102.9520    47.3697 H5            1 RES     
    2081 C0         101.5019  -104.1534    47.9231 C0            1 RES     
    2082 C0         101.3930  -104.9745    46.5901 C0            1 RES     
    2083 C0         100.7773  -104.0612    45.4676 C0            1 RES     
    2084 C0          99.2510  -103.7509    45.4557 C0            1 RES     
    2085 C0          98.6456  -102.9014    46.5926 C0            1 RES     
    2086 C0          99.2952  -101.5215    46.8115 C0            1 RES     
    2087 C0          99.1641  -100.5912    45.5984 C0            1 RES     
    2088 C0          99.7743   -99.2231    45.8948 C0            1 RES     
    2089 C0         100.5678  -106.2924    46.6313 C0            1 RES     
    2090 C0         101.3293  -107.5326    47.0899 C0            1 RES     
    2091 C0         100.3794  -108.7389    47.2055 C0            1 RES     
    2092 C0         101.1005  -109.9939    47.7219 C0            1 RES     
    2093 C0         100.0884  -111.1051    48.0510 C0            1 RES     
    2094 C0         100.7117  -112.3226    48.7586 C0            1 RES     
    2095 C0         101.2301  -111.9847    50.1708 C0            1 RES     
    2096 C0         101.7351  -113.2269    50.8978 C0            1 RES     
    2097 H6         100.4873  -104.0047    48.3186 H6            1 RES     
    2098 H6         101.8750  -103.1682    47.5662 H6            1 RES     
    2099 H6         102.4247  -105.1831    46.2290 H6            1 RES     
    2100 H6         100.9629  -104.5916    44.5065 H6            1 RES     
    2101 H6         101.3489  -103.1115    45.3901 H6            1 RES     
    2102 H6          98.6826  -104.7033    45.4035 H6            1 RES     
    2103 H6          99.0434  -103.2189    44.5031 H6            1 RES     
    2104 H6          98.6587  -103.4710    47.5364 H6            1 RES     
    2105 H6          97.5677  -102.7466    46.3677 H6            1 RES     
    2106 H6         100.3630  -101.6335    47.0753 H6            1 RES     
    2107 H6          98.7848  -101.0441    47.6767 H6            1 RES     
    2108 H6          99.6893  -101.0242    44.7220 H6            1 RES     
    2109 H6          98.0894  -100.4580    45.3473 H6            1 RES     
    2110 H6          99.2601   -98.7481    46.7576 H6            1 RES     
    2111 H6          99.6620   -98.5644    45.0081 H6            1 RES     
    2112 H6         100.8559   -99.3257    46.1274 H6            1 RES     
    2113 H6         100.2449  -106.5559    45.5988 H6            1 RES     
    2114 H6          99.6503  -106.1191    47.2359 H6            1 RES     
    2115 H6         102.1565  -107.7537    46.3806 H6            1 RES     
    2116 H6         101.7590  -107.3318    48.0619 H6            1 RES     
    2117 H6          99.5830  -108.4640    47.9330 H6            1 RES     
    2118 H6          99.9012  -108.9612    46.2266 H6            1 RES     
    2119 H6         101.8475  -110.3512    46.9808 H6            1 RES     
    2120 H6         101.6484  -109.7246    48.6332 H6            1 RES     
    2121 H6          99.2878  -110.7058    48.7127 H6            1 RES     
    2122 H6          99.6124  -111.4373    47.1022 H6            1 RES     
    2123 H6         101.5273  -112.7503    48.1371 H6            1 RES     
    2124 H6          99.9129  -113.0891    48.8633 H6            1 RES     
    2125 H6         100.4067  -111.5389    50.7718 H6            1 RES     
    2126 H6         102.0674  -111.2641    50.1190 H6            1 RES     
    2127 H6         102.0913  -112.9430    51.9092 H6            1 RES     
    2128 H6         100.9178  -113.9717    51.0054 H6            1 RES     
    2129 H6         102.5792  -113.6847    50.3372 H6            1 RES     
    2130 C0         101.9621  -105.5938    50.1293 C0            1 RES     
    2131 C0         102.7885  -106.8877    50.4323 C0            1 RES     
    2132 C0         101.8290  -108.0738    50.7963 C0            1 RES     
    2133 C0         101.1169  -108.1403    52.1699 C0            1 RES     
    2134 C0          99.9950  -107.1209    52.4542 C0            1 RES     
    2135 C0          98.8429  -107.0873    51.4280 C0            1 RES     
    2136 C0          98.1096  -108.4256    51.2698 C0            1 RES     
    2137 C0          96.9549  -108.2920    50.2789 C0            1 RES     
    2138 C0         103.8743  -106.8025    51.5449 C0            1 RES     
    2139 C0         105.0753  -105.9344    51.2092 C0            1 RES     
    2140 C0         106.1850  -106.0377    52.2564 C0            1 RES     
    2141 C0         107.3779  -105.1775    51.8240 C0            1 RES     
    2142 C0         108.5227  -105.2527    52.8414 C0            1 RES     
    2143 C0         109.7613  -104.4520    52.4046 C0            1 RES     
    2144 C0         109.4943  -102.9433    52.2820 C0            1 RES     
    2145 C0         110.7678  -102.1891    51.9148 C0            1 RES     
    2146 H6         101.6517  -105.1907    51.1089 H6            1 RES     
    2147 H6         101.0166  -105.9125    49.6632 H6            1 RES     
    2148 H6         103.2921  -107.1967    49.4955 H6            1 RES     
    2149 H6         102.4582  -108.9896    50.7579 H6            1 RES     
    2150 H6         101.0515  -108.1857    50.0219 H6            1 RES     
    2151 H6         101.8669  -108.0937    52.9855 H6            1 RES     
    2152 H6         100.6574  -109.1498    52.2382 H6            1 RES     
    2153 H6         100.4204  -106.1078    52.5520 H6            1 RES     
    2154 H6          99.5653  -107.3675    53.4494 H6            1 RES     
    2155 H6          99.2111  -106.7706    50.4366 H6            1 RES     
    2156 H6          98.1142  -106.3199    51.7708 H6            1 RES     
    2157 H6          98.8050  -109.2015    50.8864 H6            1 RES     
    2158 H6          97.7080  -108.7518    52.2534 H6            1 RES     
    2159 H6          96.2231  -107.5366    50.6377 H6            1 RES     
    2160 H6          96.4362  -109.2674    50.1726 H6            1 RES     
    2161 H6          97.3353  -107.9817    49.2816 H6            1 RES     
    2162 H6         104.2743  -107.8302    51.6955 H6            1 RES     
    2163 H6         103.4249  -106.4605    52.5023 H6            1 RES     
    2164 H6         105.4978  -106.2882    50.2477 H6            1 RES     
    2165 H6         104.7495  -104.8827    51.1566 H6            1 RES     
    2166 H6         105.8037  -105.6924    53.2416 H6            1 RES     
    2167 H6         106.5137  -107.0976    52.3473 H6            1 RES     
    2168 H6         107.7476  -105.5328    50.8360 H6            1 RES     
    2169 H6         107.0288  -104.1292    51.7219 H6            1 RES     
    2170 H6         108.1716  -104.8862    53.8306 H6            1 RES     
    2171 H6         108.8289  -106.3163    52.9526 H6            1 RES     
    2172 H6         110.1339  -104.8473    51.4337 H6            1 RES     
    2173 H6         110.5519  -104.6113    53.1703 H6            1 RES     
    2174 H6         109.1118  -102.5532    53.2500 H6            1 RES     
    2175 H6         108.7424  -102.7444    51.4904 H6            1 RES     
    2176 H6         110.5457  -101.1042    51.8333 H6            1 RES     
    2177 H6         111.5426  -102.3364    52.6969 H6            1 RES     
    2178 H6         111.1594  -102.5468    50.9386 H6            1 RES     
    2179 C0         113.7006  -108.0858    43.4479 C0            1 RES     
    2180 C1         112.9360  -107.3023    44.5227 C1            1 RES     
    2181 C1         113.7514  -106.6559    45.3852 C1            1 RES     
    2182 S2         112.9028  -105.7864    46.5337 S2            1 RES     
    2183 C1         111.3948  -106.2534    45.8870 C1            1 RES     
    2184 C1         111.5804  -107.0847    44.7764 C1            1 RES     
    2185 C1         115.0927  -106.9308    45.0164 C1            1 RES     
    2186 C1         115.1185  -107.7684    43.9386 C1            1 RES     
    2187 C1         116.4191  -108.1071    43.5516 C1            1 RES     
    2188 C1         117.3843  -107.4959    44.3925 C1            1 RES     
    2189 S2         116.6060  -106.5250    45.5614 S2            1 RES     
    2190 H3         110.7765  -107.5060    44.1890 H3            1 RES     
    2191 H3         116.6339  -108.7641    42.7222 H3            1 RES     
    2192 N4         121.0462  -106.8416    45.0081 N4            1 RES     
    2193 C1         119.6898  -106.7030    44.9912 C1            1 RES     
    2194 C1         118.8621  -107.6643    44.3660 C1            1 RES     
    2195 C1         119.4981  -108.7749    43.7824 C1            1 RES     
    2196 N4         118.8522  -109.8088    43.1863 N4            1 RES     
    2197 S2         120.0948  -110.8077    42.7502 S2            1 RES     
    2198 N4         121.4427  -110.0116    43.2764 N4            1 RES     
    2199 C1         120.9158  -108.8953    43.8348 C1            1 RES     
    2200 C1         121.6759  -107.9091    44.4488 C1            1 RES     
    2201 H5         119.2630  -105.8269    45.4600 H5            1 RES     
    2202 C0         113.3636  -107.3039    42.1210 C0            1 RES     
    2203 C0         114.0296  -107.4357    40.7060 C0            1 RES     
    2204 C0         113.7511  -106.1278    39.8782 C0            1 RES     
    2205 C0         112.3489  -105.8806    39.2467 C0            1 RES     
    2206 C0         111.1355  -105.6511    40.1715 C0            1 RES     
    2207 C0         111.2821  -104.5049    41.1908 C0            1 RES     
    2208 C0         111.4614  -103.1298    40.5340 C0            1 RES     
    2209 C0         111.5435  -102.0301    41.5904 C0            1 RES     
    2210 C0         113.6044  -108.6482    39.8294 C0            1 RES     
    2211 C0         114.3697  -109.9440    40.0813 C0            1 RES     
    2212 C0         113.7775  -111.0935    39.2454 C0            1 RES     
    2213 C0         114.4865  -112.4296    39.5173 C0            1 RES     
    2214 C0         113.7267  -113.5923    38.8553 C0            1 RES     
    2215 C0         114.2602  -114.9836    39.2441 C0            1 RES     
    2216 C0         114.0332  -115.3090    40.7339 C0            1 RES     
    2217 C0         114.4611  -116.7338    41.0710 C0            1 RES     
    2218 H6         112.2739  -107.3733    41.9954 H6            1 RES     
    2219 H6         113.6069  -106.2555    42.4019 H6            1 RES     
    2220 H6         115.1338  -107.4349    40.8438 H6            1 RES     
    2221 H6         114.4474  -106.1619    39.0101 H6            1 RES     
    2222 H6         114.0576  -105.2329    40.4613 H6            1 RES     
    2223 H6         112.1009  -106.7192    38.5625 H6            1 RES     
    2224 H6         112.4456  -104.9802    38.6036 H6            1 RES     
    2225 H6         110.8815  -106.5854    40.6988 H6            1 RES     
    2226 H6         110.2525  -105.4360    39.5309 H6            1 RES     
    2227 H6         112.1296  -104.6997    41.8735 H6            1 RES     
    2228 H6         110.3554  -104.4821    41.8053 H6            1 RES     
    2229 H6         112.3953  -103.1076    39.9349 H6            1 RES     
    2230 H6         110.5975  -102.9221    39.8661 H6            1 RES     
    2231 H6         110.6151  -102.0084    42.2002 H6            1 RES     
    2232 H6         111.6653  -101.0443    41.0940 H6            1 RES     
    2233 H6         112.4141  -102.2020    42.2589 H6            1 RES     
    2234 H6         113.8232  -108.4236    38.7610 H6            1 RES     
    2235 H6         112.5049  -108.7880    39.9245 H6            1 RES     
    2236 H6         115.4460  -109.8015    39.8418 H6            1 RES     
    2237 H6         114.2847  -110.1946    41.1299 H6            1 RES     
    2238 H6         112.7075  -111.1956    39.5349 H6            1 RES     
    2239 H6         113.8281  -110.8600    38.1595 H6            1 RES     
    2240 H6         115.5387  -112.3960    39.1613 H6            1 RES     
    2241 H6         114.5142  -112.5891    40.6022 H6            1 RES     
    2242 H6         112.6514  -113.5537    39.1391 H6            1 RES     
    2243 H6         113.7926  -113.4702    37.7517 H6            1 RES     
    2244 H6         115.3382  -115.0653    38.9882 H6            1 RES     
    2245 H6         113.7001  -115.7325    38.6426 H6            1 RES     
    2246 H6         112.9527  -115.2021    40.9770 H6            1 RES     
    2247 H6         114.6154  -114.6239    41.3780 H6            1 RES     
    2248 H6         114.2754  -116.9299    42.1468 H6            1 RES     
    2249 H6         113.8783  -117.4653    40.4711 H6            1 RES     
    2250 H6         115.5453  -116.8692    40.8651 H6            1 RES     
    2251 C0         113.1714  -109.5753    43.5201 C0            1 RES     
    2252 C0         114.0722  -110.8471    43.6607 C0            1 RES     
    2253 C0         113.3614  -112.0912    43.0228 C0            1 RES     
    2254 C0         112.1719  -112.7879    43.7286 C0            1 RES     
    2255 C0         110.8287  -112.0331    43.7992 C0            1 RES     
    2256 C0         110.2498  -111.5654    42.4472 C0            1 RES     
    2257 C0         109.9944  -112.7039    41.4510 C0            1 RES     
    2258 C0         109.3746  -112.1630    40.1640 C0            1 RES     
    2259 C0         114.5282  -111.2494    45.0940 C0            1 RES     
    2260 C0         115.5137  -110.2962    45.7489 C0            1 RES     
    2261 C0         116.0631  -110.8365    47.0699 C0            1 RES     
    2262 C0         117.0844  -109.8468    47.6420 C0            1 RES     
    2263 C0         117.6705  -110.3478    48.9674 C0            1 RES     
    2264 C0         118.7477  -109.4080    49.5354 C0            1 RES     
    2265 C0         118.2079  -108.0135    49.8908 C0            1 RES     
    2266 C0         119.2972  -107.1459    50.5124 C0            1 RES     
    2267 H6         112.3885  -109.6660    44.2929 H6            1 RES     
    2268 H6         112.6190  -109.6702    42.5721 H6            1 RES     
    2269 H6         114.9834  -110.6875    43.0516 H6            1 RES     
    2270 H6         114.1450  -112.8760    42.9456 H6            1 RES     
    2271 H6         113.0374  -111.8585    41.9944 H6            1 RES     
    2272 H6         112.4698  -113.0980    44.7508 H6            1 RES     
    2273 H6         111.9814  -113.7294    43.1698 H6            1 RES     
    2274 H6         110.9181  -111.1643    44.4730 H6            1 RES     
    2275 H6         110.0894  -112.7128    44.2759 H6            1 RES     
    2276 H6         110.9172  -110.8262    41.9705 H6            1 RES     
    2277 H6         109.2853  -111.0528    42.6576 H6            1 RES     
    2278 H6         110.9492  -113.2065    41.1892 H6            1 RES     
    2279 H6         109.3036  -113.4487    41.9016 H6            1 RES     
    2280 H6         108.4034  -111.6684    40.3809 H6            1 RES     
    2281 H6         109.1984  -112.9965    39.4527 H6            1 RES     
    2282 H6         110.0566  -111.4267    39.6861 H6            1 RES     
    2283 H6         115.0580  -112.2247    45.0105 H6            1 RES     
    2284 H6         113.6478  -111.3877    45.7584 H6            1 RES     
    2285 H6         116.3750  -110.1672    45.0638 H6            1 RES     
    2286 H6         115.0014  -109.3421    45.9546 H6            1 RES     
    2287 H6         115.2296  -110.9829    47.7905 H6            1 RES     
    2288 H6         116.5636  -111.8151    46.8925 H6            1 RES     
    2289 H6         117.9113  -109.7084    46.9098 H6            1 RES     
    2290 H6         116.5736  -108.8739    47.7962 H6            1 RES     
    2291 H6         116.8567  -110.4763    49.7139 H6            1 RES     
    2292 H6         118.1436  -111.3394    48.7936 H6            1 RES     
    2293 H6         119.5794  -109.3129    48.8026 H6            1 RES     
    2294 H6         119.1512  -109.8783    50.4588 H6            1 RES     
    2295 H6         117.3701  -108.1121    50.6146 H6            1 RES     
    2296 H6         117.8399  -107.4953    48.9811 H6            1 RES     
    2297 H6         118.8798  -106.1468    50.7587 H6            1 RES     
    2298 H6         119.6770  -107.6132    51.4457 H6            1 RES     
    2299 H6         120.1387  -107.0145    49.7991 H6            1 RES     
    2300 C0         126.8555  -108.5079    43.0241 C0            1 RES     
    2301 C1         125.5451  -108.3128    43.7975 C1            1 RES     
    2302 C1         125.7376  -108.1079    45.1194 C1            1 RES     
    2303 S2         124.3019  -107.8713    45.9429 S2            1 RES     
    2304 C1         123.3700  -108.0296    44.5227 C1            1 RES     
    2305 C1         124.2013  -108.2644    43.4215 C1            1 RES     
    2306 C1         127.1313  -108.1555    45.3761 C1            1 RES     
    2307 C1         127.8105  -108.4144    44.2204 C1            1 RES     
    2308 C1         129.1916  -108.5118    44.4184 C1            1 RES     
    2309 C1         129.5326  -108.3250    45.7827 C1            1 RES     
    2310 S2         128.1256  -108.0056    46.6954 S2            1 RES     
    2311 H3         123.8485  -108.3928    42.4077 H3            1 RES     
    2312 H3         129.8876  -108.7176    43.6191 H3            1 RES     
    2313 N4         132.3149  -107.9364    48.2975 N4            1 RES     
    2314 C1         131.1042  -107.8361    47.6784 C1            1 RES     
    2315 C1         130.8750  -108.4294    46.4153 C1            1 RES     
    2316 C1         131.9424  -109.1412    45.8386 C1            1 RES     
    2317 N4         131.8769  -109.8083    44.6587 N4            1 RES     
    2318 S2         133.3850  -110.4734    44.5357 S2            1 RES     
    2319 N4         134.1500  -109.9707    45.9103 N4            1 RES     
    2320 C1         133.1872  -109.2400    46.5224 C1            1 RES     
    2321 C1         133.3562  -108.6209    47.7535 C1            1 RES     
    2322 H5         130.3240  -107.2767    48.1763 H5            1 RES     
    2323 C0         126.9386  -107.2184    42.1208 C0            1 RES     
    2324 C0         128.1525  -106.6809    41.2838 C0            1 RES     
    2325 C0         127.9498  -105.1468    41.0031 C0            1 RES     
    2326 C0         126.9342  -104.6728    39.9215 C0            1 RES     
    2327 C0         125.4269  -104.9140    40.1457 C0            1 RES     
    2328 C0         124.8498  -104.3496    41.4581 C0            1 RES     
    2329 C0         124.9585  -102.8225    41.5600 C0            1 RES     
    2330 C0         124.3203  -102.3177    42.8523 C0            1 RES     
    2331 C0         128.4414  -107.3752    39.9222 C0            1 RES     
    2332 C0         129.3111  -108.6271    39.9925 C0            1 RES     
    2333 C0         129.4218  -109.2875    38.6059 C0            1 RES     
    2334 C0         130.2434  -110.5856    38.6489 C0            1 RES     
    2335 C0         130.1369  -111.3403    37.3123 C0            1 RES     
    2336 C0         130.7687  -112.7444    37.3404 C0            1 RES     
    2337 C0         130.0152  -113.7135    38.2733 C0            1 RES     
    2338 C0         130.5846  -115.1265    38.1966 C0            1 RES     
    2339 H6         126.0565  -107.2484    41.4659 H6            1 RES     
    2340 H6         126.7827  -106.4051    42.8634 H6            1 RES     
    2341 H6         129.0585  -106.7172    41.9288 H6            1 RES     
    2342 H6         128.9348  -104.7687    40.6475 H6            1 RES     
    2343 H6         127.7574  -104.6055    41.9543 H6            1 RES     
    2344 H6         127.2073  -105.1168    38.9411 H6            1 RES     
    2345 H6         127.0776  -103.5769    39.8111 H6            1 RES     
    2346 H6         125.2033  -105.9913    40.0757 H6            1 RES     
    2347 H6         124.8763  -104.4527    39.2969 H6            1 RES     
    2348 H6         125.3467  -104.8127    42.3304 H6            1 RES     
    2349 H6         123.7739  -104.6284    41.4985 H6            1 RES     
    2350 H6         126.0234  -102.5105    41.5525 H6            1 RES     
    2351 H6         124.4379  -102.3549    40.6962 H6            1 RES     
    2352 H6         123.2451  -102.5954    42.8878 H6            1 RES     
    2353 H6         124.4031  -101.2116    42.9021 H6            1 RES     
    2354 H6         124.8380  -102.7535    43.7336 H6            1 RES     
    2355 H6         129.0329  -106.6869    39.2771 H6            1 RES     
    2356 H6         127.4737  -107.5681    39.4085 H6            1 RES     
    2357 H6         130.3193  -108.3671    40.3826 H6            1 RES     
    2358 H6         128.8512  -109.3267    40.6771 H6            1 RES     
    2359 H6         128.3884  -109.5339    38.2737 H6            1 RES     
    2360 H6         129.8716  -108.5872    37.8688 H6            1 RES     
    2361 H6         131.3058  -110.3706    38.8940 H6            1 RES     
    2362 H6         129.8449  -111.2177    39.4519 H6            1 RES     
    2363 H6         129.0679  -111.4588    37.0271 H6            1 RES     
    2364 H6         130.6341  -110.7309    36.5258 H6            1 RES     
    2365 H6         131.8386  -112.6769    37.6322 H6            1 RES     
    2366 H6         130.7127  -113.1530    36.3078 H6            1 RES     
    2367 H6         128.9426  -113.7527    37.9800 H6            1 RES     
    2368 H6         130.0876  -113.3806    39.3255 H6            1 RES     
    2369 H6         130.0122  -115.7921    38.8746 H6            1 RES     
    2370 H6         130.5040  -115.5208    37.1609 H6            1 RES     
    2371 H6         131.6514  -115.1294    38.5098 H6            1 RES     
    2372 C0         126.7166  -109.8807    42.2495 C0            1 RES     
    2373 C0         127.7462  -111.0577    42.3075 C0            1 RES     
    2374 C0         127.6917  -111.8947    40.9822 C0            1 RES     
    2375 C0         126.5184  -112.8622    40.6892 C0            1 RES     
    2376 C0         125.1356  -112.2518    40.3826 C0            1 RES     
    2377 C0         125.0927  -111.2367    39.2210 C0            1 RES     
    2378 C0         125.5632  -111.8071    37.8767 C0            1 RES     
    2379 C0         125.4394  -110.7570    36.7744 C0            1 RES     
    2380 C0         127.6317  -112.0542    43.4984 C0            1 RES     
    2381 C0         127.9880  -111.4779    44.8583 C0            1 RES     
    2382 C0         128.0357  -112.5444    45.9533 C0            1 RES     
    2383 C0         128.4498  -111.8974    47.2798 C0            1 RES     
    2384 C0         128.5182  -112.9301    48.4113 C0            1 RES     
    2385 C0         128.9948  -112.3244    49.7426 C0            1 RES     
    2386 C0         128.0408  -111.2540    50.2964 C0            1 RES     
    2387 C0         128.5223  -110.7367    51.6477 C0            1 RES     
    2388 H6         125.7261  -110.3289    42.4402 H6            1 RES     
    2389 H6         126.6590  -109.5493    41.2008 H6            1 RES     
    2390 H6         128.7629  -110.6192    42.3341 H6            1 RES     
    2391 H6         128.5956  -112.5416    41.0000 H6            1 RES     
    2392 H6         127.7900  -111.2296    40.1078 H6            1 RES     
    2393 H6         126.4185  -113.5942    41.5163 H6            1 RES     
    2394 H6         126.8130  -113.4533    39.7955 H6            1 RES     
    2395 H6         124.7211  -111.7799    41.2895 H6            1 RES     
    2396 H6         124.4489  -113.0903    40.1353 H6            1 RES     
    2397 H6         125.7025  -110.3468    39.4564 H6            1 RES     
    2398 H6         124.0389  -110.8968    39.1149 H6            1 RES     
    2399 H6         126.6278  -112.1151    37.9417 H6            1 RES     
    2400 H6         124.9453  -112.6907    37.6074 H6            1 RES     
    2401 H6         124.3814  -110.4363    36.6631 H6            1 RES     
    2402 H6         125.7857  -111.1826    35.8096 H6            1 RES     
    2403 H6         126.0632  -109.8689    37.0148 H6            1 RES     
    2404 H6         128.3618  -112.8739    43.3145 H6            1 RES     
    2405 H6         126.6133  -112.4979    43.5383 H6            1 RES     
    2406 H6         129.0008  -111.0334    44.7893 H6            1 RES     
    2407 H6         127.2264  -110.7319    45.1384 H6            1 RES     
    2408 H6         127.0363  -113.0198    46.0570 H6            1 RES     
    2409 H6         128.7809  -113.3254    45.6803 H6            1 RES     
    2410 H6         129.4502  -111.4240    47.1607 H6            1 RES     
    2411 H6         127.7068  -111.1113    47.5275 H6            1 RES     
    2412 H6         127.5208  -113.4008    48.5518 H6            1 RES     
    2413 H6         129.2409  -113.7248    48.1228 H6            1 RES     
    2414 H6         130.0099  -111.8892    49.6086 H6            1 RES     
    2415 H6         129.0670  -113.1521    50.4817 H6            1 RES     
    2416 H6         127.0250  -111.6884    50.4188 H6            1 RES     
    2417 H6         127.9823  -110.3891    49.6036 H6            1 RES     
    2418 H6         127.8157  -109.9667    52.0230 H6            1 RES     
    2419 H6         128.5690  -111.5667    52.3843 H6            1 RES     
    2420 H6         129.5291  -110.2777    51.5478 H6            1 RES     
    2421 C0         138.6286  -108.3924    48.9225 C0            1 RES     
    2422 C1         137.1090  -108.5980    48.9675 C1            1 RES     
    2423 C1         136.6673  -109.0087    50.1769 C1            1 RES     
    2424 S2         135.0071  -109.2029    50.2163 S2            1 RES     
    2425 C1         134.8336  -108.7231    48.5884 C1            1 RES     
    2426 C1         136.0832  -108.4155    48.0381 C1            1 RES     
    2427 C1         137.7873  -109.1354    51.0373 C1            1 RES     
    2428 C1         138.9328  -108.8281    50.3611 C1            1 RES     
    2429 C1         140.0785  -108.9730    51.1502 C1            1 RES     
    2430 C1         139.7527  -109.4156    52.4580 C1            1 RES     
    2431 S2         138.0601  -109.5757    52.6132 S2            1 RES     
    2432 H3         136.2358  -108.0796    47.0219 H3            1 RES     
    2433 H3         141.0747  -108.7791    50.7821 H3            1 RES     
    2434 N4         141.0235  -110.1428    55.9327 N4            1 RES     
    2435 C1         140.2047  -109.8010    54.8972 C1            1 RES     
    2436 C1         140.6818  -109.7641    53.5664 C1            1 RES     
    2437 C1         142.0283  -110.1136    53.3585 C1            1 RES     
    2438 N4         142.6306  -110.1763    52.1441 N4            1 RES     
    2439 S2         144.1585  -110.6792    52.5243 S2            1 RES     
    2440 N4         144.1237  -110.8352    54.1680 N4            1 RES     
    2441 C1         142.8491  -110.4824    54.4619 C1            1 RES     
    2442 C1         142.3269  -110.4833    55.7483 C1            1 RES     
    2443 H5         139.1788  -109.5452    55.1242 H5            1 RES     
    2444 C0         138.7782  -106.8322    48.7513 C0            1 RES     
    2445 C0         140.0663  -105.9467    48.8919 C0            1 RES     
    2446 C0         139.6438  -104.4566    49.1645 C0            1 RES     
    2447 C0         139.1030  -103.5681    48.0051 C0            1 RES     
    2448 C0         137.7483  -103.9189    47.3554 C0            1 RES     
    2449 C0         136.5528  -104.0224    48.3219 C0            1 RES     
    2450 C0         136.2415  -102.7043    49.0431 C0            1 RES     
    2451 C0         135.0153  -102.8532    49.9412 C0            1 RES     
    2452 C0         141.0618  -105.9435    47.6968 C0            1 RES     
    2453 C0         142.0893  -107.0716    47.6921 C0            1 RES     
    2454 C0         142.9317  -107.0310    46.4038 C0            1 RES     
    2455 C0         143.9397  -108.1890    46.3366 C0            1 RES     
    2456 C0         144.5936  -108.2600    44.9457 C0            1 RES     
    2457 C0         145.4673  -109.5102    44.7336 C0            1 RES     
    2458 C0         144.6433  -110.8133    44.7257 C0            1 RES     
    2459 C0         145.5092  -112.0256    44.3977 C0            1 RES     
    2460 H6         138.2927  -106.5829    47.7974 H6            1 RES     
    2461 H6         138.1334  -106.4464    49.5715 H6            1 RES     
    2462 H6         140.5926  -106.2501    49.8243 H6            1 RES     
    2463 H6         140.5654  -103.9362    49.5100 H6            1 RES     
    2464 H6         138.9432  -104.4085    50.0256 H6            1 RES     
    2465 H6         139.8634  -103.5143    47.1977 H6            1 RES     
    2466 H6         139.0147  -102.5378    48.4105 H6            1 RES     
    2467 H6         137.8387  -104.8530    46.7767 H6            1 RES     
    2468 H6         137.5180  -103.1364    46.5998 H6            1 RES     
    2469 H6         136.7266  -104.8183    49.0692 H6            1 RES     
    2470 H6         135.6619  -104.3137    47.7232 H6            1 RES     
    2471 H6         137.1009  -102.3984    49.6751 H6            1 RES     
    2472 H6         136.0423  -101.9087    48.2928 H6            1 RES     
    2473 H6         134.1270  -103.1414    49.3394 H6            1 RES     
    2474 H6         134.8037  -101.8876    50.4467 H6            1 RES     
    2475 H6         135.1970  -103.6284    50.7161 H6            1 RES     
    2476 H6         141.6888  -105.0246    47.7435 H6            1 RES     
    2477 H6         140.4803  -105.9053    46.7492 H6            1 RES     
    2478 H6         142.7427  -106.9933    48.5883 H6            1 RES     
    2479 H6         141.5632  -108.0155    47.7360 H6            1 RES     
    2480 H6         142.2285  -107.1240    45.5460 H6            1 RES     
    2481 H6         143.4711  -106.0629    46.3141 H6            1 RES     
    2482 H6         144.7127  -108.0840    47.1281 H6            1 RES     
    2483 H6         143.4009  -109.1249    46.5292 H6            1 RES     
    2484 H6         143.8089  -108.2611    44.1567 H6            1 RES     
    2485 H6         145.2170  -107.3496    44.8051 H6            1 RES     
    2486 H6         146.2621  -109.5576    45.5085 H6            1 RES     
    2487 H6         145.9540  -109.4089    43.7389 H6            1 RES     
    2488 H6         143.8401  -110.7402    43.9592 H6            1 RES     
    2489 H6         144.1808  -110.9906    45.7145 H6            1 RES     
    2490 H6         144.8795  -112.9386    44.3949 H6            1 RES     
    2491 H6         145.9722  -111.9106    43.3943 H6            1 RES     
    2492 H6         146.3089  -112.1454    45.1608 H6            1 RES     
    2493 C0         139.1624  -109.2692    47.7184 C0            1 RES     
    2494 C0         140.3170  -110.3214    47.8107 C0            1 RES     
    2495 C0         141.0310  -110.4697    46.4221 C0            1 RES     
    2496 C0         140.3604  -111.2266    45.2492 C0            1 RES     
    2497 C0         139.1373  -110.5753    44.5719 C0            1 RES     
    2498 C0         139.3517  -109.1458    44.0311 C0            1 RES     
    2499 C0         140.4690  -109.0359    42.9855 C0            1 RES     
    2500 C0         140.5793  -107.6039    42.4654 C0            1 RES     
    2501 C0         139.9483  -111.7510    48.3052 C0            1 RES     
    2502 C0         139.5452  -111.8440    49.7672 C0            1 RES     
    2503 C0         139.3754  -113.2890    50.2382 C0            1 RES     
    2504 C0         139.0203  -113.3025    51.7294 C0            1 RES     
    2505 C0         138.8451  -114.7334    52.2522 C0            1 RES     
    2506 C0         138.5523  -114.7844    53.7615 C0            1 RES     
    2507 C0         137.2293  -114.1023    54.1447 C0            1 RES     
    2508 C0         136.9534  -114.2411    55.6381 C0            1 RES     
    2509 H6         138.3225  -109.7777    47.2139 H6            1 RES     
    2510 H6         139.4785  -108.5008    46.9956 H6            1 RES     
    2511 H6         141.0897  -109.9192    48.4947 H6            1 RES     
    2512 H6         141.9669  -111.0339    46.6262 H6            1 RES     
    2513 H6         141.3301  -109.4790    46.0404 H6            1 RES     
    2514 H6         140.0959  -112.2555    45.5673 H6            1 RES     
    2515 H6         141.1377  -111.3428    44.4636 H6            1 RES     
    2516 H6         138.2780  -110.5740    45.2637 H6            1 RES     
    2517 H6         138.8416  -111.2268    43.7211 H6            1 RES     
    2518 H6         139.5730  -108.4450    44.8550 H6            1 RES     
    2519 H6         138.3954  -108.8189    43.5667 H6            1 RES     
    2520 H6         141.4448  -109.3155    43.4353 H6            1 RES     
    2521 H6         140.2536  -109.7160    42.1335 H6            1 RES     
    2522 H6         139.6260  -107.2918    41.9874 H6            1 RES     
    2523 H6         141.3926  -107.5392    41.7129 H6            1 RES     
    2524 H6         140.8111  -106.9065    43.2994 H6            1 RES     
    2525 H6         140.8590  -112.3821    48.1999 H6            1 RES     
    2526 H6         139.1471  -112.1880    47.6706 H6            1 RES     
    2527 H6         140.3537  -111.3933    50.3766 H6            1 RES     
    2528 H6         138.5836  -111.3229    49.9042 H6            1 RES     
    2529 H6         138.5713  -113.7826    49.6507 H6            1 RES     
    2530 H6         140.3280  -113.8449    50.0854 H6            1 RES     
    2531 H6         139.8323  -112.8037    52.3046 H6            1 RES     
    2532 H6         138.0792  -112.7306    51.8655 H6            1 RES     
    2533 H6         138.0260  -115.2394    51.6962 H6            1 RES     
    2534 H6         139.7879  -115.2950    52.0709 H6            1 RES     
    2535 H6         139.3926  -114.3127    54.3174 H6            1 RES     
    2536 H6         138.4983  -115.8550    54.0574 H6            1 RES     
    2537 H6         136.3931  -114.5681    53.5797 H6            1 RES     
    2538 H6         137.2668  -113.0191    53.9062 H6            1 RES     
    2539 H6         135.9936  -113.7404    55.8857 H6            1 RES     
    2540 H6         136.8787  -115.3131    55.9187 H6            1 RES     
    2541 H6         137.7663  -113.7637    56.2259 H6            1 RES     
    2542 C0         146.3824  -110.6878    59.3158 C0            1 RES     
    2543 C1         145.0846  -110.9261    58.5333 C1            1 RES     
    2544 C1         144.2829  -111.8493    59.1089 C1            1 RES     
    2545 S2         142.8619  -112.0782    58.2581 S2            1 RES     
    2546 C1         143.2874  -110.9183    57.0817 C1            1 RES     
    2547 C1         144.5396  -110.3666    57.3760 C1            1 RES     
    2548 C1         144.9262  -112.3258    60.2793 C1            1 RES     
    2549 C1         146.1410  -111.7199    60.4241 C1            1 RES     
    2550 C1         146.8413  -112.1797    61.5441 C1            1 RES     
    2551 C1         146.1068  -113.1732    62.2410 C1            1 RES     
    2552 S2         144.6002  -113.4248    61.4784 S2            1 RES     
    2553 H3         145.0246  -109.6041    56.7826 H3            1 RES     
    2554 H3         147.8219  -111.8177    61.8143 H3            1 RES     
    2555 N4         145.9146  -115.3638    65.3039 N4            1 RES     
    2556 C1         145.5576  -114.6096    64.2255 C1            1 RES     
    2557 C1         146.5307  -113.9639    63.4277 C1            1 RES     
    2558 C1         147.8784  -114.1508    63.7844 C1            1 RES     
    2559 N4         148.9351  -113.6438    63.1004 N4            1 RES     
    2560 S2         150.2280  -114.2293    63.9474 S2            1 RES     
    2561 N4         149.5369  -115.1124    65.1597 N4            1 RES     
    2562 C1         148.2147  -114.9599    64.9066 C1            1 RES     
    2563 C1         147.2126  -115.5543    65.6615 C1            1 RES     
    2564 H5         144.5042  -114.5075    64.0035 H5            1 RES     
    2565 C0         146.2150  -109.2159    59.8555 C0            1 RES     
    2566 C0         147.0702  -108.4605    60.9330 C0            1 RES     
    2567 C0         146.2311  -107.2648    61.5157 C0            1 RES     
    2568 C0         146.0397  -105.9607    60.6859 C0            1 RES     
    2569 C0         145.2155  -106.0106    59.3826 C0            1 RES     
    2570 C0         143.7852  -106.5672    59.5198 C0            1 RES     
    2571 C0         142.8938  -105.7252    60.4422 C0            1 RES     
    2572 C0         141.4767  -106.2921    60.4933 C0            1 RES     
    2573 C0         148.4466  -107.8945    60.4806 C0            1 RES     
    2574 C0         149.6143  -108.8748    60.5416 C0            1 RES     
    2575 C0         150.8876  -108.2368    59.9562 C0            1 RES     
    2576 C0         152.0720  -109.2159    59.9471 C0            1 RES     
    2577 C0         153.2507  -108.6353    59.1465 C0            1 RES     
    2578 C0         154.4012  -109.6342    58.9231 C0            1 RES     
    2579 C0         153.9944  -110.8113    58.0142 C0            1 RES     
    2580 C0         155.1782  -111.7241    57.7105 C0            1 RES     
    2581 H6         146.1366  -108.5733    58.9673 H6            1 RES     
    2582 H6         145.2118  -109.2575    60.3340 H6            1 RES     
    2583 H6         147.2063  -109.1407    61.8032 H6            1 RES     
    2584 H6         146.7660  -106.9360    62.4352 H6            1 RES     
    2585 H6         145.2420  -107.6273    61.8692 H6            1 RES     
    2586 H6         147.0340  -105.5303    60.4428 H6            1 RES     
    2587 H6         145.5456  -105.2273    61.3580 H6            1 RES     
    2588 H6         145.7621  -106.5797    58.6126 H6            1 RES     
    2589 H6         145.1490  -104.9764    58.9796 H6            1 RES     
    2590 H6         143.8090  -107.6108    59.8837 H6            1 RES     
    2591 H6         143.3303  -106.5766    58.5050 H6            1 RES     
    2592 H6         143.3036  -105.7186    61.4735 H6            1 RES     
    2593 H6         142.8492  -104.6811    60.0634 H6            1 RES     
    2594 H6         141.0245  -106.2972    59.4785 H6            1 RES     
    2595 H6         140.8476  -105.6645    61.1591 H6            1 RES     
    2596 H6         141.4907  -107.3296    60.8907 H6            1 RES     
    2597 H6         148.7561  -107.0820    61.1761 H6            1 RES     
    2598 H6         148.3317  -107.4452    59.4695 H6            1 RES     
    2599 H6         149.7860  -109.1953    61.5923 H6            1 RES     
    2600 H6         149.3604  -109.7482    59.9566 H6            1 RES     
    2601 H6         150.6595  -107.9479    58.9057 H6            1 RES     
    2602 H6         151.1668  -107.3207    60.5210 H6            1 RES     
    2603 H6         152.3864  -109.4625    60.9841 H6            1 RES     
    2604 H6         151.7420  -110.1498    59.4757 H6            1 RES     
    2605 H6         152.9003  -108.2974    58.1458 H6            1 RES     
    2606 H6         153.6386  -107.7458    59.6901 H6            1 RES     
    2607 H6         154.7779  -110.0086    59.8989 H6            1 RES     
    2608 H6         155.2245  -109.0829    58.4184 H6            1 RES     
    2609 H6         153.6007  -110.4178    57.0507 H6            1 RES     
    2610 H6         153.2126  -111.4271    58.4966 H6            1 RES     
    2611 H6         154.8463  -112.5513    57.0504 H6            1 RES     
    2612 H6         155.9814  -111.1572    57.1928 H6            1 RES     
    2613 H6         155.5814  -112.1577    58.6517 H6            1 RES     
    2614 C0         147.5684  -110.9129    58.2928 C0            1 RES     
    2615 C0         148.7880  -111.8665    58.5209 C0            1 RES     
    2616 C0         150.0366  -111.3545    57.7216 C0            1 RES     
    2617 C0         150.1286  -111.5143    56.1839 C0            1 RES     
    2618 C0         149.1928  -110.6552    55.3092 C0            1 RES     
    2619 C0         149.2700  -109.1312    55.5401 C0            1 RES     
    2620 C0         150.6639  -108.5348    55.3053 C0            1 RES     
    2621 C0         150.6407  -107.0204    55.5028 C0            1 RES     
    2622 C0         148.5957  -113.3732    58.1786 C0            1 RES     
    2623 C0         147.6450  -114.1265    59.0937 C0            1 RES     
    2624 C0         147.6402  -115.6317    58.8238 C0            1 RES     
    2625 C0         146.7000  -116.3261    59.8156 C0            1 RES     
    2626 C0         146.6651  -117.8423    59.5892 C0            1 RES     
    2627 C0         145.7807  -118.5770    60.6110 C0            1 RES     
    2628 C0         144.3000  -118.1723    60.5315 C0            1 RES     
    2629 C0         143.4579  -118.9776    61.5153 C0            1 RES     
    2630 H6         147.1697  -111.1574    57.2929 H6            1 RES     
    2631 H6         147.9689  -109.8938    58.1756 H6            1 RES     
    2632 H6         149.0772  -111.7996    59.5880 H6            1 RES     
    2633 H6         150.9017  -111.9285    58.1191 H6            1 RES     
    2634 H6         150.2245  -110.2917    57.9493 H6            1 RES     
    2635 H6         150.0070  -112.5816    55.9084 H6            1 RES     
    2636 H6         151.1688  -111.2449    55.9007 H6            1 RES     
    2637 H6         148.1481  -110.9865    55.4347 H6            1 RES     
    2638 H6         149.4506  -110.8581    54.2470 H6            1 RES     
    2639 H6         148.9469  -108.8738    56.5640 H6            1 RES     
    2640 H6         148.5539  -108.6515    54.8370 H6            1 RES     
    2641 H6         151.3918  -108.9653    56.0246 H6            1 RES     
    2642 H6         150.9991  -108.7609    54.2702 H6            1 RES     
    2643 H6         149.9365  -106.5477    54.7848 H6            1 RES     
    2644 H6         151.6553  -106.6038    55.3328 H6            1 RES     
    2645 H6         150.3233  -106.7704    56.5384 H6            1 RES     
    2646 H6         149.5861  -113.8675    58.2955 H6            1 RES     
    2647 H6         148.2691  -113.4941    57.1230 H6            1 RES     
    2648 H6         147.9855  -113.9817    60.1383 H6            1 RES     
    2649 H6         146.6229  -113.7457    58.9346 H6            1 RES     
    2650 H6         147.3044  -115.8245    57.7819 H6            1 RES     
    2651 H6         148.6694  -116.0364    58.9526 H6            1 RES     
    2652 H6         147.0467  -116.1230    60.8537 H6            1 RES     
    2653 H6         145.6841  -115.8992    59.6854 H6            1 RES     
    2654 H6         146.3058  -118.0608    58.5599 H6            1 RES     
    2655 H6         147.6993  -118.2396    59.6887 H6            1 RES     
    2656 H6         146.1666  -118.3886    61.6373 H6            1 RES     
    2657 H6         145.8624  -119.6666    60.4043 H6            1 RES     
    2658 H6         143.9201  -118.3513    59.5024 H6            1 RES     
    2659 H6         144.1766  -117.0978    60.7801 H6            1 RES     
    2660 H6         142.3953  -118.6652    61.4360 H6            1 RES     
    2661 H6         143.5284  -120.0621    61.2860 H6            1 RES     
    2662 H6         143.8051  -118.7993    62.5555 H6            1 RES     
    2663 C0         149.2897  -117.2573    70.3522 C0            1 RES     
    2664 C1         148.5447  -117.1455    69.0157 C1            1 RES     
    2665 C1         147.8193  -118.2473    68.7218 C1            1 RES     
    2666 S2         146.9935  -118.0991    67.2756 S2            1 RES     
    2667 C1         147.5890  -116.5232    67.0067 C1            1 RES     
    2668 C1         148.4269  -116.1358    68.0587 C1            1 RES     
    2669 C1         147.9977  -119.1867    69.7689 C1            1 RES     
    2670 C1         148.8535  -118.6842    70.7064 C1            1 RES     
    2671 C1         149.0992  -119.5847    71.7481 C1            1 RES     
    2672 C1         148.3976  -120.8024    71.5549 C1            1 RES     
    2673 S2         147.4650  -120.7162    70.1275 S2            1 RES     
    2674 H3         148.9213  -115.1765    68.1228 H3            1 RES     
    2675 H3         149.7551  -119.3616    72.5762 H3            1 RES     
    2676 N4         147.4501  -124.1450    73.0198 N4            1 RES     
    2677 C1         147.4168  -122.9930    72.2911 C1            1 RES     
    2678 C1         148.4522  -122.0343    72.3870 C1            1 RES     
    2679 C1         149.5226  -122.3315    73.2498 C1            1 RES     
    2680 N4         150.6156  -121.5460    73.4222 N4            1 RES     
    2681 S2         151.5248  -122.4216    74.4894 S2            1 RES     
    2682 N4         150.6161  -123.7730    74.7641 N4            1 RES     
    2683 C1         149.5322  -123.5527    73.9817 C1            1 RES     
    2684 C1         148.4775  -124.4469    73.8578 C1            1 RES     
    2685 H5         146.5665  -122.8256    71.6443 H5            1 RES     
    2686 C0         148.5644  -116.1927    71.2613 C0            1 RES     
    2687 C0         148.6745  -115.9870    72.8133 C0            1 RES     
    2688 C0         147.4099  -115.2035    73.3233 C0            1 RES     
    2689 C0         147.2850  -113.6698    73.0820 C0            1 RES     
    2690 C0         147.1301  -113.1438    71.6398 C0            1 RES     
    2691 C0         145.9546  -113.7347    70.8378 C0            1 RES     
    2692 C0         144.5841  -113.4215    71.4526 C0            1 RES     
    2693 C0         143.4591  -113.9823    70.5854 C0            1 RES     
    2694 C0         149.9345  -115.2463    73.3455 C0            1 RES     
    2695 C0         151.1618  -116.1213    73.5831 C0            1 RES     
    2696 C0         152.3711  -115.2586    73.9886 C0            1 RES     
    2697 C0         153.6425  -116.1005    74.1798 C0            1 RES     
    2698 C0         154.8741  -115.1938    74.3484 C0            1 RES     
    2699 C0         156.2115  -115.9572    74.3474 C0            1 RES     
    2700 C0         156.5218  -116.6050    72.9832 C0            1 RES     
    2701 C0         157.9019  -117.2545    72.9686 C0            1 RES     
    2702 H6         148.7203  -115.2200    70.7741 H6            1 RES     
    2703 H6         147.4947  -116.4692    71.1331 H6            1 RES     
    2704 H6         148.5857  -116.9838    73.2999 H6            1 RES     
    2705 H6         147.4086  -115.3139    74.4312 H6            1 RES     
    2706 H6         146.4819  -115.7091    72.9801 H6            1 RES     
    2707 H6         148.1546  -113.1535    73.5404 H6            1 RES     
    2708 H6         146.3937  -113.3311    73.6516 H6            1 RES     
    2709 H6         148.0698  -113.2905    71.0823 H6            1 RES     
    2710 H6         146.9973  -112.0410    71.6899 H6            1 RES     
    2711 H6         146.0689  -114.8293    70.7326 H6            1 RES     
    2712 H6         145.9903  -113.2946    69.8171 H6            1 RES     
    2713 H6         144.5027  -113.8726    72.4632 H6            1 RES     
    2714 H6         144.4578  -112.3202    71.5361 H6            1 RES     
    2715 H6         143.4961  -113.5383    69.5677 H6            1 RES     
    2716 H6         142.4776  -113.7382    71.0438 H6            1 RES     
    2717 H6         143.5491  -115.0868    70.5041 H6            1 RES     
    2718 H6         149.7165  -114.8293    74.3546 H6            1 RES     
    2719 H6         150.1567  -114.3911    72.6697 H6            1 RES     
    2720 H6         150.9419  -116.8782    74.3673 H6            1 RES     
    2721 H6         151.3960  -116.6413    72.6642 H6            1 RES     
    2722 H6         152.5492  -114.5312    73.1651 H6            1 RES     
    2723 H6         152.1576  -114.6909    74.9204 H6            1 RES     
    2724 H6         153.5355  -116.7821    75.0510 H6            1 RES     
    2725 H6         153.7762  -116.7275    73.2897 H6            1 RES     
    2726 H6         154.9125  -114.4481    73.5235 H6            1 RES     
    2727 H6         154.7708  -114.6377    75.3062 H6            1 RES     
    2728 H6         156.2153  -116.7237    75.1516 H6            1 RES     
    2729 H6         157.0141  -115.2187    74.5642 H6            1 RES     
    2730 H6         156.4933  -115.8275    72.1877 H6            1 RES     
    2731 H6         155.7803  -117.3901    72.7443 H6            1 RES     
    2732 H6         158.0888  -117.7012    71.9707 H6            1 RES     
    2733 H6         158.6887  -116.4967    73.1713 H6            1 RES     
    2734 H6         157.9576  -118.0576    73.7357 H6            1 RES     
    2735 C0         150.8136  -116.9683    70.0394 C0            1 RES     
    2736 C0         152.0089  -117.8939    70.4436 C0            1 RES     
    2737 C0         153.3174  -117.0474    70.6208 C0            1 RES     
    2738 C0         154.0885  -116.4925    69.3977 C0            1 RES     
    2739 C0         153.4382  -115.3523    68.5879 C0            1 RES     
    2740 C0         153.0453  -114.0961    69.3938 C0            1 RES     
    2741 C0         154.2211  -113.4264    70.1169 C0            1 RES     
    2742 C0         153.7570  -112.1659    70.8442 C0            1 RES     
    2743 C0         152.3444  -119.0869    69.5010 C0            1 RES     
    2744 C0         151.3043  -120.1940    69.4664 C0            1 RES     
    2745 C0         151.7725  -121.4142    68.6723 C0            1 RES     
    2746 C0         150.6950  -122.5033    68.7257 C0            1 RES     
    2747 C0         151.1211  -123.7536    67.9468 C0            1 RES     
    2748 C0         150.0892  -124.8909    68.0354 C0            1 RES     
    2749 C0         148.7332  -124.5279    67.4094 C0            1 RES     
    2750 C0         147.7712  -125.7101    67.4614 C0            1 RES     
    2751 H6         150.9479  -116.7432    68.9671 H6            1 RES     
    2752 H6         150.9710  -115.9975    70.5348 H6            1 RES     
    2753 H6         151.7926  -118.3101    71.4469 H6            1 RES     
    2754 H6         154.0409  -117.7192    71.1318 H6            1 RES     
    2755 H6         153.1323  -116.1984    71.3002 H6            1 RES     
    2756 H6         154.3530  -117.3223    68.7112 H6            1 RES     
    2757 H6         155.0536  -116.1004    69.7850 H6            1 RES     
    2758 H6         152.5510  -115.7282    68.0509 H6            1 RES     
    2759 H6         154.1625  -115.0470    67.8018 H6            1 RES     
    2760 H6         152.2672  -114.3370    70.1391 H6            1 RES     
    2761 H6         152.6043  -113.3668    68.6791 H6            1 RES     
    2762 H6         154.6540  -114.1188    70.8690 H6            1 RES     
    2763 H6         155.0071  -113.1522    69.3808 H6            1 RES     
    2764 H6         153.3343  -111.4358    70.1209 H6            1 RES     
    2765 H6         154.6166  -111.6944    71.3644 H6            1 RES     
    2766 H6         152.9807  -112.4185    71.5986 H6            1 RES     
    2767 H6         153.2775  -119.5578    69.8836 H6            1 RES     
    2768 H6         152.5359  -118.7248    68.4677 H6            1 RES     
    2769 H6         151.1239  -120.5295    70.5071 H6            1 RES     
    2770 H6         150.3884  -119.8059    68.9916 H6            1 RES     
    2771 H6         151.9673  -121.1226    67.6175 H6            1 RES     
    2772 H6         152.7131  -121.8098    69.1176 H6            1 RES     
    2773 H6         150.5089  -122.7837    69.7867 H6            1 RES     
    2774 H6         149.7613  -122.0869    68.2943 H6            1 RES     
    2775 H6         151.2961  -123.4912    66.8807 H6            1 RES     
    2776 H6         152.0767  -124.1292    68.3745 H6            1 RES     
    2777 H6         149.9459  -125.1782    69.1006 H6            1 RES     
    2778 H6         150.5073  -125.7671    67.4931 H6            1 RES     
    2779 H6         148.8807  -124.2308    66.3485 H6            1 RES     
    2780 H6         148.2644  -123.6851    67.9584 H6            1 RES     
    2781 H6         146.8022  -125.4199    67.0032 H6            1 RES     
    2782 H6         148.1879  -126.5717    66.8978 H6            1 RES     
    2783 H6         147.5905  -126.0135    68.5147 H6            1 RES     
    2784 C0         148.7055  -128.0390    77.8903 C0            1 RES     
    2785 C1         148.5955  -127.3521    76.5230 C1            1 RES     
    2786 C1         148.3483  -128.2181    75.5153 C1            1 RES     
    2787 S2         148.2057  -127.4508    74.0367 S2            1 RES     
    2788 C1         148.4655  -125.9105    74.7225 C1            1 RES     
    2789 C1         148.6588  -126.0217    76.1042 C1            1 RES     
    2790 C1         148.2829  -129.5251    76.0613 C1            1 RES     
    2791 C1         148.5132  -129.4815    77.4063 C1            1 RES     
    2792 C1         148.4996  -130.7498    77.9958 C1            1 RES     
    2793 C1         148.2582  -131.7642    77.0340 C1            1 RES     
    2794 S2         148.0288  -131.0632    75.4943 S2            1 RES     
    2795 H3         148.8356  -125.1840    76.7644 H3            1 RES     
    2796 H3         148.6681  -130.9104    79.0500 H3            1 RES     
    2797 N4         147.6029  -135.4286    76.4344 N4            1 RES     
    2798 C1         147.6094  -134.0726    76.2905 C1            1 RES     
    2799 C1         148.2453  -133.2376    77.2384 C1            1 RES     
    2800 C1         148.8848  -133.8683    78.3209 C1            1 RES     
    2801 N4         149.5798  -133.2210    79.2901 N4            1 RES     
    2802 S2         150.1292  -134.4634    80.2317 S2            1 RES     
    2803 N4         149.5399  -135.8134    79.4847 N4            1 RES     
    2804 C1         148.8728  -135.2879    78.4291 C1            1 RES     
    2805 C1         148.2164  -136.0532    77.4747 C1            1 RES     
    2806 H5         147.1013  -133.6503    75.4344 H5            1 RES     
    2807 C0         147.4329  -127.5175    78.6612 C0            1 RES     
    2808 C0         146.8212  -128.0333    80.0113 C0            1 RES     
    2809 C0         145.3137  -127.5942    80.0987 C0            1 RES     
    2810 C0         144.9425  -126.1205    80.4397 C0            1 RES     
    2811 C0         145.2944  -125.0029    79.4359 C0            1 RES     
    2812 C0         144.7483  -125.1940    78.0078 C0            1 RES     
    2813 C0         143.2155  -125.2239    77.9446 C0            1 RES     
    2814 C0         142.7341  -125.3576    76.5015 C0            1 RES     
    2815 C0         147.5201  -127.5848    81.3266 C0            1 RES     
    2816 C0         148.6994  -128.4445    81.7723 C0            1 RES     
    2817 C0         149.3787  -127.8310    83.0106 C0            1 RES     
    2818 C0         150.6083  -128.6391    83.4540 C0            1 RES     
    2819 C0         151.3972  -127.8788    84.5343 C0            1 RES     
    2820 C0         152.7475  -128.5285    84.8894 C0            1 RES     
    2821 C0         153.7518  -128.4821    83.7204 C0            1 RES     
    2822 C0         155.1181  -129.0231    84.1294 C0            1 RES     
    2823 H6         147.5446  -126.4263    78.7297 H6            1 RES     
    2824 H6         146.6184  -127.7304    77.9341 H6            1 RES     
    2825 H6         146.7740  -129.1442    79.9657 H6            1 RES     
    2826 H6         144.8684  -128.1937    80.9246 H6            1 RES     
    2827 H6         144.7688  -127.9111    79.1836 H6            1 RES     
    2828 H6         145.3848  -125.8476    81.4209 H6            1 RES     
    2829 H6         143.8414  -126.0965    80.5839 H6            1 RES     
    2830 H6         146.3870  -124.8602    79.3988 H6            1 RES     
    2831 H6         144.8950  -124.0453    79.8357 H6            1 RES     
    2832 H6         145.1531  -126.1197    77.5590 H6            1 RES     
    2833 H6         145.1083  -124.3392    77.3941 H6            1 RES     
    2834 H6         142.8226  -126.0850    78.5239 H6            1 RES     
    2835 H6         142.8080  -124.2827    78.3731 H6            1 RES     
    2836 H6         143.0931  -124.5006    75.8923 H6            1 RES     
    2837 H6         141.6241  -125.3696    76.4781 H6            1 RES     
    2838 H6         143.1099  -126.3035    76.0559 H6            1 RES     
    2839 H6         146.8021  -127.6743    82.1729 H6            1 RES     
    2840 H6         147.7978  -126.5116    81.2341 H6            1 RES     
    2841 H6         148.3543  -129.4790    81.9888 H6            1 RES     
    2842 H6         149.4176  -128.4872    80.9649 H6            1 RES     
    2843 H6         149.7110  -126.8060    82.7315 H6            1 RES     
    2844 H6         148.6615  -127.7511    83.8565 H6            1 RES     
    2845 H6         150.3069  -129.6432    83.8227 H6            1 RES     
    2846 H6         151.2521  -128.7926    82.5793 H6            1 RES     
    2847 H6         151.6038  -126.8400    84.1933 H6            1 RES     
    2848 H6         150.7682  -127.8184    85.4497 H6            1 RES     
    2849 H6         152.5916  -129.5755    85.2266 H6            1 RES     
    2850 H6         153.1811  -127.9497    85.7340 H6            1 RES     
    2851 H6         153.8798  -127.4298    83.3822 H6            1 RES     
    2852 H6         153.3920  -129.0910    82.8701 H6            1 RES     
    2853 H6         155.8112  -128.9659    83.2654 H6            1 RES     
    2854 H6         155.5392  -128.4211    84.9629 H6            1 RES     
    2855 H6         155.0320  -130.0847    84.4487 H6            1 RES     
    2856 C0         150.1010  -127.6052    78.4970 C0            1 RES     
    2857 C0         151.1937  -128.5859    79.0383 C0            1 RES     
    2858 C0         152.0603  -127.8814    80.1394 C0            1 RES     
    2859 C0         153.1214  -126.8160    79.7688 C0            1 RES     
    2860 C0         152.6261  -125.4480    79.2568 C0            1 RES     
    2861 C0         151.6421  -124.7014    80.1821 C0            1 RES     
    2862 C0         152.2031  -124.4043    81.5789 C0            1 RES     
    2863 C0         151.1893  -123.6199    82.4095 C0            1 RES     
    2864 C0         152.1704  -129.2157    78.0023 C0            1 RES     
    2865 C0         151.5396  -130.2109    77.0430 C0            1 RES     
    2866 C0         152.5758  -130.9291    76.1774 C0            1 RES     
    2867 C0         151.8707  -131.9490    75.2759 C0            1 RES     
    2868 C0         152.8708  -132.7018    74.3902 C0            1 RES     
    2869 C0         152.2020  -133.7795    73.5199 C0            1 RES     
    2870 C0         151.1968  -133.2037    72.5097 C0            1 RES     
    2871 C0         150.6153  -134.3032    71.6274 C0            1 RES     
    2872 H6         150.6201  -126.9165    77.8079 H6            1 RES     
    2873 H6         149.7974  -126.9599    79.3362 H6            1 RES     
    2874 H6         150.6776  -129.4157    79.5598 H6            1 RES     
    2875 H6         152.6351  -128.6950    80.6331 H6            1 RES     
    2876 H6         151.4084  -127.4359    80.9096 H6            1 RES     
    2877 H6         153.8411  -127.2393    79.0390 H6            1 RES     
    2878 H6         153.7069  -126.6195    80.6926 H6            1 RES     
    2879 H6         152.1683  -125.5606    78.2595 H6            1 RES     
    2880 H6         153.5201  -124.8038    79.1099 H6            1 RES     
    2881 H6         150.7032  -125.2709    80.2957 H6            1 RES     
    2882 H6         151.3869  -123.7379    79.6882 H6            1 RES     
    2883 H6         152.4266  -125.3520    82.1124 H6            1 RES     
    2884 H6         153.1372  -123.8091    81.4891 H6            1 RES     
    2885 H6         150.9536  -122.6516    81.9181 H6            1 RES     
    2886 H6         151.6073  -123.4152    83.4171 H6            1 RES     
    2887 H6         150.2508  -124.2040    82.5266 H6            1 RES     
    2888 H6         152.9352  -129.7873    78.5743 H6            1 RES     
    2889 H6         152.6904  -128.4213    77.4243 H6            1 RES     
    2890 H6         151.0199  -130.9848    77.6423 H6            1 RES     
    2891 H6         150.8488  -129.6711    76.3749 H6            1 RES     
    2892 H6         153.1245  -130.1877    75.5571 H6            1 RES     
    2893 H6         153.3026  -131.4618    76.8314 H6            1 RES     
    2894 H6         151.3242  -132.6830    75.9097 H6            1 RES     
    2895 H6         151.1391  -131.4040    74.6442 H6            1 RES     
    2896 H6         153.4139  -131.9817    73.7401 H6            1 RES     
    2897 H6         153.6134  -133.2083    75.0454 H6            1 RES     
    2898 H6         151.6928  -134.5206    74.1750 H6            1 RES     
    2899 H6         153.0057  -134.3060    72.9600 H6            1 RES     
    2900 H6         151.7055  -132.4557    71.8637 H6            1 RES     
    2901 H6         150.3539  -132.7112    73.0372 H6            1 RES     
    2902 H6         149.8943  -133.8594    70.9088 H6            1 RES     
    2903 H6         151.4234  -134.8071    71.0557 H6            1 RES     
    2904 H6         150.0823  -135.0542    72.2488 H6            1 RES     
    2905 C0         147.5574  -141.0744    79.3643 C0            1 RES     
    2906 C1         147.8785  -139.8461    78.5031 C1            1 RES     
    2907 C1         148.2963  -140.1682    77.2588 C1            1 RES     
    2908 S2         148.6170  -138.8187    76.3253 S2            1 RES     
    2909 C1         148.1868  -137.7495    77.5831 C1            1 RES     
    2910 C1         147.7955  -138.4691    78.7180 C1            1 RES     
    2911 C1         148.3180  -141.5820    77.1516 C1            1 RES     
    2912 C1         147.9378  -142.1461    78.3353 C1            1 RES     
    2913 C1         147.9771  -143.5437    78.3023 C1            1 RES     
    2914 C1         148.4156  -144.0188    77.0396 C1            1 RES     
    2915 S2         148.7023  -142.7028    75.9906 S2            1 RES     
    2916 H3         147.4705  -138.0167    79.6446 H3            1 RES     
    2917 H3         147.7148  -144.1598    79.1492 H3            1 RES     
    2918 N4         148.9686  -147.0299    74.8387 N4            1 RES     
    2919 C1         148.7131  -145.7557    75.2515 C1            1 RES     
    2920 C1         148.6678  -145.4253    76.6259 C1            1 RES     
    2921 C1         148.9168  -146.4626    77.5428 C1            1 RES     
    2922 N4         148.9587  -146.3078    78.8903 N4            1 RES     
    2923 S2         149.3342  -147.8288    79.4170 S2            1 RES     
    2924 N4         149.4573  -148.7081    78.0245 N4            1 RES     
    2925 C1         149.1977  -147.7775    77.0748 C1            1 RES     
    2926 C1         149.2115  -148.0433    75.7121 C1            1 RES     
    2927 H5         148.5323  -145.0036    74.4958 H5            1 RES     
    2928 C0         145.9943  -140.9870    79.5514 C0            1 RES     
    2929 C0         145.0094  -142.0714    80.1144 C0            1 RES     
    2930 C0         143.5508  -141.7539    79.6194 C0            1 RES     
    2931 C0         142.7315  -140.6025    80.2745 C0            1 RES     
    2932 C0         143.1995  -139.1441    80.0888 C0            1 RES     
    2933 C0         143.3742  -138.6811    78.6296 C0            1 RES     
    2934 C0         142.0690  -138.7143    77.8235 C0            1 RES     
    2935 C0         142.2929  -138.1919    76.4061 C0            1 RES     
    2936 C0         144.9549  -142.2504    81.6586 C0            1 RES     
    2937 C0         146.0003  -143.1914    82.2501 C0            1 RES     
    2938 C0         145.9223  -143.1889    83.7880 C0            1 RES     
    2939 C0         147.0003  -144.0819    84.4220 C0            1 RES     
    2940 C0         147.0502  -143.8745    85.9458 C0            1 RES     
    2941 C0         148.2336  -144.5835    86.6302 C0            1 RES     
    2942 C0         149.5962  -143.9906    86.2192 C0            1 RES     
    2943 C0         150.7448  -144.6267    86.9956 C0            1 RES     
    2944 H6         145.8036  -140.0425    80.0800 H6            1 RES     
    2945 H6         145.6421  -140.8667    78.5032 H6            1 RES     
    2946 H6         145.2515  -143.0424    79.6276 H6            1 RES     
    2947 H6         142.9538  -142.6719    79.8198 H6            1 RES     
    2948 H6         143.5386  -141.6350    78.5147 H6            1 RES     
    2949 H6         142.6365  -140.7928    81.3643 H6            1 RES     
    2950 H6         141.7027  -140.6714    79.8616 H6            1 RES     
    2951 H6         144.1359  -138.9751    80.6457 H6            1 RES     
    2952 H6         142.4532  -138.4802    80.5773 H6            1 RES     
    2953 H6         144.1383  -139.2944    78.1175 H6            1 RES     
    2954 H6         143.7460  -137.6332    78.6525 H6            1 RES     
    2955 H6         141.6844  -139.7529    77.7551 H6            1 RES     
    2956 H6         141.3073  -138.0781    78.3243 H6            1 RES     
    2957 H6         142.6614  -137.1441    76.4329 H6            1 RES     
    2958 H6         141.3359  -138.2173    75.8436 H6            1 RES     
    2959 H6         143.0351  -138.8252    75.8746 H6            1 RES     
    2960 H6         143.9896  -142.7292    81.9390 H6            1 RES     
    2961 H6         144.9818  -141.2453    82.1346 H6            1 RES     
    2962 H6         145.8528  -144.2196    81.8535 H6            1 RES     
    2963 H6         146.9808  -142.8481    81.9494 H6            1 RES     
    2964 H6         146.0874  -142.1412    84.1255 H6            1 RES     
    2965 H6         144.9176  -143.5165    84.1337 H6            1 RES     
    2966 H6         146.8192  -145.1508    84.1778 H6            1 RES     
    2967 H6         147.9706  -143.8085    83.9896 H6            1 RES     
    2968 H6         147.1286  -142.7893    86.1790 H6            1 RES     
    2969 H6         146.0977  -144.2489    86.3813 H6            1 RES     
    2970 H6         148.2031  -145.6730    86.4155 H6            1 RES     
    2971 H6         148.1162  -144.4394    87.7266 H6            1 RES     
    2972 H6         149.6015  -142.8965    86.4217 H6            1 RES     
    2973 H6         149.7876  -144.1572    85.1428 H6            1 RES     
    2974 H6         151.7036  -144.1691    86.6768 H6            1 RES     
    2975 H6         150.6158  -144.4572    88.0861 H6            1 RES     
    2976 H6         150.7864  -145.7196    86.7951 H6            1 RES     
    2977 C0         148.4159  -140.9300    80.6856 C0            1 RES     
    2978 C0         149.3738  -142.0243    81.2634 C0            1 RES     
    2979 C0         149.4960  -141.8743    82.8198 C0            1 RES     
    2980 C0         150.3272  -140.7325    83.4553 C0            1 RES     
    2981 C0         149.7866  -139.2926    83.3402 C0            1 RES     
    2982 C0         148.3567  -139.0677    83.8755 C0            1 RES     
    2983 C0         148.1832  -139.4217    85.3582 C0            1 RES     
    2984 C0         146.7584  -139.1211    85.8193 C0            1 RES     
    2985 C0         150.8167  -142.0951    80.6827 C0            1 RES     
    2986 C0         150.9094  -142.5630    79.2401 C0            1 RES     
    2987 C0         152.3529  -142.7883    78.7880 C0            1 RES     
    2988 C0         152.3620  -143.3061    77.3452 C0            1 RES     
    2989 C0         153.7907  -143.5540    76.8463 C0            1 RES     
    2990 C0         153.8320  -144.1366    75.4233 C0            1 RES     
    2991 C0         153.2459  -143.1894    74.3643 C0            1 RES     
    2992 C0         153.3738  -143.7840    72.9659 C0            1 RES     
    2993 H6         148.9983  -139.9926    80.6628 H6            1 RES     
    2994 H6         147.6410  -140.7411    81.4450 H6            1 RES     
    2995 H6         148.8988  -143.0117    81.1018 H6            1 RES     
    2996 H6         149.9820  -142.8098    83.1728 H6            1 RES     
    2997 H6         148.4936  -141.8402    83.2787 H6            1 RES     
    2998 H6         151.3664  -140.7635    83.0695 H6            1 RES     
    2999 H6         150.3998  -140.9617    84.5403 H6            1 RES     
    3000 H6         149.8369  -138.9524    82.2920 H6            1 RES     
    3001 H6         150.4769  -138.6313    83.9077 H6            1 RES     
    3002 H6         147.6235  -139.6483    83.2888 H6            1 RES     
    3003 H6         148.1144  -137.9912    83.7353 H6            1 RES     
    3004 H6         148.3772  -140.5028    85.5201 H6            1 RES     
    3005 H6         148.8959  -138.8290    85.9712 H6            1 RES     
    3006 H6         146.5309  -138.0408    85.6924 H6            1 RES     
    3007 H6         146.6472  -139.3846    86.8917 H6            1 RES     
    3008 H6         146.0276  -139.7162    85.2300 H6            1 RES     
    3009 H6         151.3778  -142.8460    81.2828 H6            1 RES     
    3010 H6         151.3275  -141.1135    80.7882 H6            1 RES     
    3011 H6         150.3849  -143.5359    79.1594 H6            1 RES     
    3012 H6         150.4612  -141.7954    78.5884 H6            1 RES     
    3013 H6         152.9193  -141.8342    78.8538 H6            1 RES     
    3014 H6         152.8368  -143.5424    79.4490 H6            1 RES     
    3015 H6         151.7900  -144.2596    77.2938 H6            1 RES     
    3016 H6         151.8615  -142.5512    76.7041 H6            1 RES     
    3017 H6         154.3700  -142.6056    76.8779 H6            1 RES     
    3018 H6         154.2817  -144.2849    77.5260 H6            1 RES     
    3019 H6         153.2852  -145.1053    75.4042 H6            1 RES     
    3020 H6         154.8971  -144.3345    75.1719 H6            1 RES     
    3021 H6         153.7867  -142.2187    74.3931 H6            1 RES     
    3022 H6         152.1684  -143.0080    74.5582 H6            1 RES     
    3023 H6         152.9434  -143.0798    72.2229 H6            1 RES     
    3024 H6         154.4422  -143.9564    72.7161 H6            1 RES     
    3025 H6         152.8228  -144.7468    72.9049 H6            1 RES     
    3026 C0         149.0269  -153.3897    74.9391 C0            1 RES     
    3027 C1         149.3812  -151.8978    74.8929 C1            1 RES     
    3028 C1         150.3510  -151.6129    73.9958 C1            1 RES     
    3029 S2         150.7067  -149.9802    73.9395 S2            1 RES     
    3030 C1         149.5427  -149.6054    75.1291 C1            1 RES     
    3031 C1         148.8900  -150.7691    75.5519 C1            1 RES     
    3032 C1         150.7515  -152.8244    73.3775 C1            1 RES     
    3033 C1         150.0508  -153.8713    73.9038 C1            1 RES     
    3034 C1         150.4313  -155.1017    73.3584 C1            1 RES     
    3035 C1         151.4634  -154.9443    72.3980 C1            1 RES     
    3036 S2         151.8465  -153.2900    72.2217 S2            1 RES     
    3037 H3         148.1052  -150.7922    76.2950 H3            1 RES     
    3038 H3         149.9891  -156.0400    73.6578 H3            1 RES     
    3039 N4         153.5967  -156.6212    69.7800 N4            1 RES     
    3040 C1         152.8953  -155.6776    70.4707 C1            1 RES     
    3041 C1         152.1937  -156.0056    71.6541 C1            1 RES     
    3042 C1         152.2686  -157.3393    72.0946 C1            1 RES     
    3043 N4         151.6963  -157.8097    73.2315 N4            1 RES     
    3044 S2         152.1622  -159.3955    73.2410 S2            1 RES     
    3045 N4         153.0700  -159.5470    71.8698 N4            1 RES     
    3046 C1         153.0253  -158.2937    71.3572 C1            1 RES     
    3047 C1         153.6789  -157.9142    70.1927 C1            1 RES     
    3048 H5         152.8795  -154.6694    70.0799 H5            1 RES     
    3049 C0         147.5611  -153.4322    74.3598 C0            1 RES     
    3050 C0         146.7194  -154.6761    73.9048 C0            1 RES     
    3051 C0         145.5798  -154.2025    72.9301 C0            1 RES     
    3052 C0         144.3122  -153.4908    73.4893 C0            1 RES     
    3053 C0         144.4532  -152.0958    74.1332 C0            1 RES     
    3054 C0         145.1153  -151.0192    73.2519 C0            1 RES     
    3055 C0         144.3252  -150.7140    71.9725 C0            1 RES     
    3056 C0         144.9984  -149.6021    71.1708 C0            1 RES     
    3057 C0         146.0588  -155.5352    75.0206 C0            1 RES     
    3058 C0         146.9446  -156.6179    75.6301 C0            1 RES     
    3059 C0         146.2229  -157.3128    76.7994 C0            1 RES     
    3060 C0         147.1078  -158.3711    77.4765 C0            1 RES     
    3061 C0         146.4552  -158.8741    78.7760 C0            1 RES     
    3062 C0         147.3670  -159.7887    79.6148 C0            1 RES     
    3063 C0         148.5910  -159.0431    80.1831 C0            1 RES     
    3064 C0         149.4160  -159.9353    81.1052 C0            1 RES     
    3065 H6         146.9456  -152.8334    75.0457 H6            1 RES     
    3066 H6         147.6698  -152.8589    73.4128 H6            1 RES     
    3067 H6         147.3684  -155.3162    73.2664 H6            1 RES     
    3068 H6         145.1913  -155.1253    72.4432 H6            1 RES     
    3069 H6         146.0099  -153.5972    72.1034 H6            1 RES     
    3070 H6         143.8118  -154.1554    74.2247 H6            1 RES     
    3071 H6         143.6050  -153.3890    72.6389 H6            1 RES     
    3072 H6         144.9947  -152.1755    75.0902 H6            1 RES     
    3073 H6         143.4361  -151.7417    74.4095 H6            1 RES     
    3074 H6         146.1461  -151.3169    72.9853 H6            1 RES     
    3075 H6         145.1814  -150.0867    73.8544 H6            1 RES     
    3076 H6         144.2651  -151.6179    71.3316 H6            1 RES     
    3077 H6         143.2959  -150.3906    72.2402 H6            1 RES     
    3078 H6         145.0599  -148.6716    71.7747 H6            1 RES     
    3079 H6         144.4071  -149.3923    70.2547 H6            1 RES     
    3080 H6         146.0230  -149.9095    70.8706 H6            1 RES     
    3081 H6         145.2102  -156.1110    74.5869 H6            1 RES     
    3082 H6         145.6412  -154.8536    75.7944 H6            1 RES     
    3083 H6         147.2284  -157.3587    74.8510 H6            1 RES     
    3084 H6         147.8472  -156.1534    76.0030 H6            1 RES     
    3085 H6         145.9748  -156.5275    77.5482 H6            1 RES     
    3086 H6         145.2763  -157.7842    76.4560 H6            1 RES     
    3087 H6         147.3073  -159.2179    76.7850 H6            1 RES     
    3088 H6         148.0741  -157.9097    77.7143 H6            1 RES     
    3089 H6         146.1666  -158.0102    79.4152 H6            1 RES     
    3090 H6         145.5271  -159.4267    78.5104 H6            1 RES     
    3091 H6         147.6904  -160.6639    79.0116 H6            1 RES     
    3092 H6         146.7647  -160.1588    80.4732 H6            1 RES     
    3093 H6         148.2496  -158.1591    80.7662 H6            1 RES     
    3094 H6         149.2548  -158.7006    79.3676 H6            1 RES     
    3095 H6         150.2802  -159.3612    81.4975 H6            1 RES     
    3096 H6         148.8001  -160.2802    81.9632 H6            1 RES     
    3097 H6         149.7972  -160.8181    80.5470 H6            1 RES     
    3098 C0         149.1817  -153.8389    76.4484 C0            1 RES     
    3099 C0         150.0333  -155.0540    76.9454 C0            1 RES     
    3100 C0         149.4437  -155.6213    78.2835 C0            1 RES     
    3101 C0         149.6286  -154.8716    79.6260 C0            1 RES     
    3102 C0         148.8630  -153.5481    79.8278 C0            1 RES     
    3103 C0         147.3330  -153.6223    79.6394 C0            1 RES     
    3104 C0         146.6361  -154.6124    80.5817 C0            1 RES     
    3105 C0         145.1241  -154.5853    80.3668 C0            1 RES     
    3106 C0         151.5573  -154.8216    77.1640 C0            1 RES     
    3107 C0         152.3620  -154.5844    75.8971 C0            1 RES     
    3108 C0         153.8685  -154.5479    76.1572 C0            1 RES     
    3109 C0         154.6121  -154.3569    74.8304 C0            1 RES     
    3110 C0         156.1310  -154.3198    75.0379 C0            1 RES     
    3111 C0         156.9097  -154.1948    73.7173 C0            1 RES     
    3112 C0         156.6221  -152.8847    72.9668 C0            1 RES     
    3113 C0         157.4689  -152.7796    71.7029 C0            1 RES     
    3114 H6         149.4773  -152.9795    77.0748 H6            1 RES     
    3115 H6         148.1374  -154.0316    76.7402 H6            1 RES     
    3116 H6         149.9216  -155.8722    76.2073 H6            1 RES     
    3117 H6         149.9407  -156.6040    78.4361 H6            1 RES     
    3118 H6         148.3649  -155.8213    78.1694 H6            1 RES     
    3119 H6         150.7077  -154.7012    79.8165 H6            1 RES     
    3120 H6         149.2859  -155.5650    80.4239 H6            1 RES     
    3121 H6         149.2711  -152.7697    79.1611 H6            1 RES     
    3122 H6         149.0679  -153.1994    80.8633 H6            1 RES     
    3123 H6         147.0796  -153.8914    78.5991 H6            1 RES     
    3124 H6         146.9250  -152.6046    79.8265 H6            1 RES     
    3125 H6         146.9938  -155.6451    80.3864 H6            1 RES     
    3126 H6         146.8576  -154.3448    81.6373 H6            1 RES     
    3127 H6         144.7225  -153.5700    80.5730 H6            1 RES     
    3128 H6         144.6343  -155.3077    81.0523 H6            1 RES     
    3129 H6         144.8773  -154.8662    79.3199 H6            1 RES     
    3130 H6         151.9712  -155.7497    77.6181 H6            1 RES     
    3131 H6         151.7255  -153.9825    77.8733 H6            1 RES     
    3132 H6         152.1692  -155.4273    75.2040 H6            1 RES     
    3133 H6         152.0646  -153.6155    75.4639 H6            1 RES     
    3134 H6         154.1087  -153.7141    76.8519 H6            1 RES     
    3135 H6         154.1899  -155.5081    76.6203 H6            1 RES     
    3136 H6         154.3608  -155.1969    74.1446 H6            1 RES     
    3137 H6         154.2676  -153.4054    74.3752 H6            1 RES     
    3138 H6         156.3983  -153.4752    75.7098 H6            1 RES     
    3139 H6         156.4451  -155.2676    75.5281 H6            1 RES     
    3140 H6         156.6704  -155.0623    73.0632 H6            1 RES     
    3141 H6         157.9940  -154.2333    73.9615 H6            1 RES     
    3142 H6         156.8517  -152.0199    73.6263 H6            1 RES     
    3143 H6         155.5554  -152.8353    72.6651 H6            1 RES     
    3144 H6         157.2410  -151.8256    71.1823 H6            1 RES     
    3145 H6         158.5494  -152.7960    71.9598 H6            1 RES     
    3146 H6         157.2423  -153.6231    71.0162 H6            1 RES     
    3147 C0         155.1167  -162.3359    67.4362 C0            1 RES     
    3148 C1         155.0912  -160.9767    68.1471 C1            1 RES     
    3149 C1         156.2515  -160.2948    68.0246 C1            1 RES     
    3150 S2         156.1982  -158.8055    68.7826 S2            1 RES     
    3151 C1         154.5871  -159.0358    69.2943 C1            1 RES     
    3152 C1         154.1140  -160.2795    68.8602 C1            1 RES     
    3153 C1         157.1520  -161.0863    67.2673 C1            1 RES     
    3154 C1         156.5652  -162.2737    66.9362 C1            1 RES     
    3155 C1         157.4216  -163.1154    66.2192 C1            1 RES     
    3156 C1         158.6936  -162.5173    66.0282 C1            1 RES     
    3157 S2         158.7100  -160.9537    66.7135 S2            1 RES     
    3158 H3         153.1184  -160.6540    69.0529 H3            1 RES     
    3159 H3         157.1312  -164.0976    65.8776 H3            1 RES     
    3160 N4         162.0674  -162.7799    64.3652 N4            1 RES     
    3161 C1         160.9372  -162.2669    64.9297 C1            1 RES     
    3162 C1         159.8998  -163.1104    65.3906 C1            1 RES     
    3163 C1         160.0951  -164.4971    65.2585 C1            1 RES     
    3164 N4         159.2243  -165.4437    65.6909 N4            1 RES     
    3165 S2         160.0042  -166.8513    65.3137 S2            1 RES     
    3166 N4         161.4155  -166.3456    64.6209 N4            1 RES     
    3167 C1         161.2961  -164.9974    64.6801 C1            1 RES     
    3168 C1         162.2714  -164.1174    64.2306 C1            1 RES     
    3169 H5         160.8496  -161.1916    65.0040 H5            1 RES     
    3170 C0         154.0921  -162.1452    66.2531 C0            1 RES     
    3171 C0         153.8456  -163.0678    65.0077 C0            1 RES     
    3172 C0         153.1512  -162.2307    63.8718 C0            1 RES     
    3173 C0         151.6372  -161.8780    63.9687 C0            1 RES     
    3174 C0         151.1555  -160.9221    65.0798 C0            1 RES     
    3175 C0         151.8522  -159.5485    65.1252 C0            1 RES     
    3176 C0         151.6325  -158.7159    63.8552 C0            1 RES     
    3177 C0         152.2967  -157.3467    63.9820 C0            1 RES     
    3178 C0         152.9989  -164.3534    65.2308 C0            1 RES     
    3179 C0         153.7714  -165.5742    65.7221 C0            1 RES     
    3180 C0         152.8096  -166.7390    66.0207 C0            1 RES     
    3181 C0         153.5467  -167.9686    66.5742 C0            1 RES     
    3182 C0         152.5445  -169.0196    67.0824 C0            1 RES     
    3183 C0         153.2023  -170.1936    67.8310 C0            1 RES     
    3184 C0         153.8532  -169.7579    69.1591 C0            1 RES     
    3185 C0         154.3945  -170.9514    69.9396 C0            1 RES     
    3186 H6         153.1208  -161.9355    66.7227 H6            1 RES     
    3187 H6         154.4529  -161.2034    65.7840 H6            1 RES     
    3188 H6         154.8357  -163.3350    64.5757 H6            1 RES     
    3189 H6         153.2378  -162.8423    62.9455 H6            1 RES     
    3190 H6         153.7341  -161.3074    63.6656 H6            1 RES     
    3191 H6         151.0458  -162.8146    64.0461 H6            1 RES     
    3192 H6         151.3562  -161.4189    62.9971 H6            1 RES     
    3193 H6         151.2412  -161.4136    66.0629 H6            1 RES     
    3194 H6         150.0654  -160.7546    64.9387 H6            1 RES     
    3195 H6         152.9367  -159.6700    65.3023 H6            1 RES     
    3196 H6         151.4324  -158.9881    65.9893 H6            1 RES     
    3197 H6         152.0669  -159.2335    62.9750 H6            1 RES     
    3198 H6         150.5427  -158.5722    63.6896 H6            1 RES     
    3199 H6         151.8729  -156.7887    64.8443 H6            1 RES     
    3200 H6         152.1193  -156.7588    63.0570 H6            1 RES     
    3201 H6         153.3924  -157.4616    64.1261 H6            1 RES     
    3202 H6         152.5785  -164.6900    64.2563 H6            1 RES     
    3203 H6         152.1436  -164.1052    65.8974 H6            1 RES     
    3204 H6         154.5262  -165.8759    64.9636 H6            1 RES     
    3205 H6         154.2912  -165.3081    66.6324 H6            1 RES     
    3206 H6         152.0883  -166.3831    66.7902 H6            1 RES     
    3207 H6         152.2404  -167.0257    65.1097 H6            1 RES     
    3208 H6         154.2159  -168.4064    65.8024 H6            1 RES     
    3209 H6         154.1804  -167.6427    67.4082 H6            1 RES     
    3210 H6         151.8157  -168.5450    67.7765 H6            1 RES     
    3211 H6         151.9777  -169.4134    66.2100 H6            1 RES     
    3212 H6         153.9490  -170.6937    67.1779 H6            1 RES     
    3213 H6         152.3997  -170.9254    68.0691 H6            1 RES     
    3214 H6         153.0972  -169.2411    69.7912 H6            1 RES     
    3215 H6         154.6979  -169.0685    68.9740 H6            1 RES     
    3216 H6         154.8465  -170.5972    70.8885 H6            1 RES     
    3217 H6         153.5741  -171.6610    70.1803 H6            1 RES     
    3218 H6         155.1744  -171.4775    69.3467 H6            1 RES     
    3219 C0         154.7179  -163.4153    68.5222 C0            1 RES     
    3220 C0         155.5397  -164.7041    68.8577 C0            1 RES     
    3221 C0         154.5913  -165.8284    69.4021 C0            1 RES     
    3222 C0         154.0047  -165.7628    70.8339 C0            1 RES     
    3223 C0         152.9356  -164.6914    71.1302 C0            1 RES     
    3224 C0         151.6966  -164.7073    70.2102 C0            1 RES     
    3225 C0         150.9229  -166.0321    70.2291 C0            1 RES     
    3226 C0         149.6868  -165.9454    69.3360 C0            1 RES     
    3227 C0         156.7231  -164.5609    69.8594 C0            1 RES     
    3228 C0         157.9075  -163.7582    69.3482 C0            1 RES     
    3229 C0         159.1046  -163.8088    70.2986 C0            1 RES     
    3230 C0         160.2722  -163.0216    69.6928 C0            1 RES     
    3231 C0         161.5022  -163.0476    70.6081 C0            1 RES     
    3232 C0         162.7135  -162.3213    69.9989 C0            1 RES     
    3233 C0         162.4695  -160.8203    69.7752 C0            1 RES     
    3234 C0         163.7209  -160.1357    69.2359 C0            1 RES     
    3235 H6         154.5059  -162.9255    69.4884 H6            1 RES     
    3236 H6         153.7274  -163.7429    68.1693 H6            1 RES     
    3237 H6         155.9500  -165.1024    67.9092 H6            1 RES     
    3238 H6         155.1943  -166.7622    69.3847 H6            1 RES     
    3239 H6         153.7449  -165.9798    68.7112 H6            1 RES     
    3240 H6         154.8261  -165.6723    71.5735 H6            1 RES     
    3241 H6         153.5313  -166.7497    71.0261 H6            1 RES     
    3242 H6         153.3901  -163.6866    71.1056 H6            1 RES     
    3243 H6         152.5921  -164.8441    72.1764 H6            1 RES     
    3244 H6         151.9807  -164.4827    69.1673 H6            1 RES     
    3245 H6         151.0187  -163.8938    70.5509 H6            1 RES     
    3246 H6         151.5638  -166.8564    69.8517 H6            1 RES     
    3247 H6         150.6047  -166.2659    71.2678 H6            1 RES     
    3248 H6         149.0071  -165.1424    69.6939 H6            1 RES     
    3249 H6         149.1395  -166.9107    69.3573 H6            1 RES     
    3250 H6         149.9824  -165.7280    68.2867 H6            1 RES     
    3251 H6         157.1125  -165.5843    70.0591 H6            1 RES     
    3252 H6         156.3694  -164.1296    70.8209 H6            1 RES     
    3253 H6         158.2338  -164.2007    68.3860 H6            1 RES     
    3254 H6         157.6014  -162.7051    69.2373 H6            1 RES     
    3255 H6         158.8213  -163.3740    71.2815 H6            1 RES     
    3256 H6         159.4170  -164.8670    70.4479 H6            1 RES     
    3257 H6         160.5434  -163.4662    68.7090 H6            1 RES     
    3258 H6         159.9383  -161.9752    69.5350 H6            1 RES     
    3259 H6         161.2498  -162.5923    71.5905 H6            1 RES     
    3260 H6         161.7938  -164.1072    70.7800 H6            1 RES     
    3261 H6         162.9883  -162.8044    69.0352 H6            1 RES     
    3262 H6         163.5662  -162.4412    70.7026 H6            1 RES     
    3263 H6         162.1845  -160.3422    70.7374 H6            1 RES     
    3264 H6         161.6539  -160.6642    69.0392 H6            1 RES     
    3265 H6         163.5161  -159.0549    69.0844 H6            1 RES     
    3266 H6         164.5597  -160.2418    69.9562 H6            1 RES     
    3267 H6         164.0149  -160.5825    68.2621 H6            1 RES     
    3268 C0         165.7487  -166.7806    61.0632 C0            1 RES     
    3269 C1         165.1015  -165.8908    62.1323 C1            1 RES     
    3270 C1         166.0052  -165.2009    62.8629 C1            1 RES     
    3271 S2         165.2828  -164.2170    64.0054 S2            1 RES     
    3272 C1         163.7129  -164.6905    63.5351 C1            1 RES     
    3273 C1         163.7794  -165.6140    62.4854 C1            1 RES     
    3274 C1         167.3015  -165.5437    62.4015 C1            1 RES     
    3275 C1         167.2117  -166.4661    61.3990 C1            1 RES     
    3276 C1         168.4644  -166.8728    60.9285 C1            1 RES     
    3277 C1         169.5146  -166.2240    61.6274 C1            1 RES     
    3278 S2         168.8663  -165.1395    62.7754 S2            1 RES     
    3279 H3         162.9168  -166.0577    62.0082 H3            1 RES     
    3280 H3         168.5891  -167.6006    60.1408 H3            1 RES     
    3281 N4         173.2306  -165.6292    61.8615 N4            1 RES     
    3282 C1         171.8815  -165.4529    61.9526 C1            1 RES     
    3283 C1         170.9800  -166.4371    61.4848 C1            1 RES     
    3284 C1         171.5364  -167.6093    60.9418 C1            1 RES     
    3285 N4         170.8170  -168.6687    60.4929 N4            1 RES     
    3286 S2         171.9931  -169.7354    60.0337 S2            1 RES     
    3287 N4         173.4000  -168.9390    60.3711 N4            1 RES     
    3288 C1         172.9501  -167.7663    60.8790 C1            1 RES     
    3289 C1         173.7838  -166.7563    61.3396 C1            1 RES     
    3290 H5         171.5179  -164.5297    62.3827 H5            1 RES     
    3291 C0         165.3106  -166.0991    59.7107 C0            1 RES     
    3292 C0         165.8432  -166.3642    58.2585 C0            1 RES     
    3293 C0         165.5199  -165.1200    57.3526 C0            1 RES     
    3294 C0         164.0722  -164.8838    56.8286 C0            1 RES     
    3295 C0         162.9524  -164.5450    57.8345 C0            1 RES     
    3296 C0         163.2153  -163.3249    58.7381 C0            1 RES     
    3297 C0         163.3647  -162.0133    57.9560 C0            1 RES     
    3298 C0         163.5657  -160.8346    58.9059 C0            1 RES     
    3299 C0         165.3143  -167.6306    57.5265 C0            1 RES     
    3300 C0         166.0708  -168.9236    57.8169 C0            1 RES     
    3301 C0         165.3806  -170.1192    57.1348 C0            1 RES     
    3302 C0         166.0820  -171.4490    57.4533 C0            1 RES     
    3303 C0         165.2403  -172.6388    56.9598 C0            1 RES     
    3304 C0         165.7763  -174.0091    57.4144 C0            1 RES     
    3305 C0         165.6775  -174.2062    58.9403 C0            1 RES     
    3306 C0         166.1028  -175.6110    59.3557 C0            1 RES     
    3307 H6         164.2128  -166.1466    59.6878 H6            1 RES     
    3308 H6         165.6011  -165.0389    59.8810 H6            1 RES     
    3309 H6         166.9551  -166.3844    58.2979 H6            1 RES     
    3310 H6         166.1342  -165.2444    56.4324 H6            1 RES     
    3311 H6         165.8972  -164.1902    57.8299 H6            1 RES     
    3312 H6         163.7452  -165.7674    56.2410 H6            1 RES     
    3313 H6         164.1301  -164.0415    56.1069 H6            1 RES     
    3314 H6         162.7267  -165.4258    58.4579 H6            1 RES     
    3315 H6         162.0201  -164.3567    57.2585 H6            1 RES     
    3316 H6         164.1165  -163.4885    59.3573 H6            1 RES     
    3317 H6         162.3485  -163.2255    59.4278 H6            1 RES     
    3318 H6         164.2409  -162.0668    57.2772 H6            1 RES     
    3319 H6         162.4487  -161.8351    57.3518 H6            1 RES     
    3320 H6         162.6967  -160.7366    59.5913 H6            1 RES     
    3321 H6         163.6637  -159.8962    58.3206 H6            1 RES     
    3322 H6         164.4891  -160.9772    59.5072 H6            1 RES     
    3323 H6         165.4408  -167.4997    56.4280 H6            1 RES     
    3324 H6         164.2251  -167.7302    57.7294 H6            1 RES     
    3325 H6         167.1240  -168.8324    57.4725 H6            1 RES     
    3326 H6         166.0753  -169.0861    58.8861 H6            1 RES     
    3327 H6         164.3392  -170.1663    57.5250 H6            1 RES     
    3328 H6         165.3383  -169.9758    56.0331 H6            1 RES     
    3329 H6         167.0982  -171.4750    57.0045 H6            1 RES     
    3330 H6         166.2039  -171.5210    58.5411 H6            1 RES     
    3331 H6         164.1961  -172.5461    57.3330 H6            1 RES     
    3332 H6         165.2092  -172.6083    55.8484 H6            1 RES     
    3333 H6         166.8248  -174.1426    57.0722 H6            1 RES     
    3334 H6         165.1479  -174.7875    56.9290 H6            1 RES     
    3335 H6         164.6259  -174.0485    59.2679 H6            1 RES     
    3336 H6         166.3302  -173.4886    59.4714 H6            1 RES     
    3337 H6         166.0106  -175.7140    60.4562 H6            1 RES     
    3338 H6         165.4525  -176.3712    58.8723 H6            1 RES     
    3339 H6         167.1608  -175.7942    59.0670 H6            1 RES     
    3340 C0         165.1958  -168.2433    61.3052 C0            1 RES     
    3341 C0         166.0777  -169.5254    61.4713 C0            1 RES     
    3342 C0         165.2852  -170.7957    61.0040 C0            1 RES     
    3343 C0         164.1493  -171.3980    61.8673 C0            1 RES     
    3344 C0         162.8347  -170.6012    61.9930 C0            1 RES     
    3345 C0         162.1467  -170.2276    60.6630 C0            1 RES     
    3346 C0         161.7777  -171.4350    59.7913 C0            1 RES     
    3347 C0         161.0563  -170.9820    58.5234 C0            1 RES     
    3348 C0         166.6522  -169.8236    62.8873 C0            1 RES     
    3349 C0         167.7132  -168.8497    63.3713 C0            1 RES     
    3350 C0         168.3676  -169.2973    64.6790 C0            1 RES     
    3351 C0         169.4578  -168.2948    65.0747 C0            1 RES     
    3352 C0         170.1499  -168.7038    66.3805 C0            1 RES     
    3353 C0         171.2942  -167.7530    66.7712 C0            1 RES     
    3354 C0         170.8192  -166.3192    67.0557 C0            1 RES     
    3355 C0         171.9788  -165.4364    67.5046 C0            1 RES     
    3356 H6         164.4840  -168.2484    62.1489 H6            1 RES     
    3357 H6         164.5582  -168.3985    60.4208 H6            1 RES     
    3358 H6         166.9335  -169.4422    60.7731 H6            1 RES     
    3359 H6         166.0414  -171.6066    60.9236 H6            1 RES     
    3360 H6         164.8750  -170.6375    59.9924 H6            1 RES     
    3361 H6         164.5313  -171.6331    62.8815 H6            1 RES     
    3362 H6         163.8887  -172.3757    61.4077 H6            1 RES     
    3363 H6         163.0035  -169.6837    62.5818 H6            1 RES     
    3364 H6         162.1268  -171.2182    62.5878 H6            1 RES     
    3365 H6         162.7843  -169.5492    60.0697 H6            1 RES     
    3366 H6         161.2165  -169.6718    60.9142 H6            1 RES     
    3367 H6         162.6937  -171.9847    59.4891 H6            1 RES     
    3368 H6         161.1142  -172.1204    60.3613 H6            1 RES     
    3369 H6         160.1196  -170.4435    58.7831 H6            1 RES     
    3370 H6         160.7985  -171.8648    57.9021 H6            1 RES     
    3371 H6         161.7083  -170.3070    57.9278 H6            1 RES     
    3372 H6         167.1509  -170.8175    62.8388 H6            1 RES     
    3373 H6         165.8325  -169.8820    63.6358 H6            1 RES     
    3374 H6         168.5119  -168.8017    62.6046 H6            1 RES     
    3375 H6         167.2426  -167.8676    63.5413 H6            1 RES     
    3376 H6         167.5995  -169.3605    65.4799 H6            1 RES     
    3377 H6         168.8287  -170.3012    64.5402 H6            1 RES     
    3378 H6         170.2181  -168.2402    64.2636 H6            1 RES     
    3379 H6         168.9843  -167.2981    65.1919 H6            1 RES     
    3380 H6         169.4041  -168.7478    67.2038 H6            1 RES     
    3381 H6         170.5836  -169.7196    66.2487 H6            1 RES     
    3382 H6         172.0583  -167.7418    65.9627 H6            1 RES     
    3383 H6         171.7689  -168.1587    67.6914 H6            1 RES     
    3384 H6         170.0481  -166.3345    67.8561 H6            1 RES     
    3385 H6         170.3820  -165.8658    66.1420 H6            1 RES     
    3386 H6         171.6072  -164.4088    67.7028 H6            1 RES     
    3387 H6         172.4309  -165.8375    68.4364 H6            1 RES     
    3388 H6         172.7552  -165.3876    66.7115 H6            1 RES     
    3389 C0         178.7995  -167.6192    59.5189 C0            1 RES     
    3390 C1         177.5687  -167.3240    60.3858 C1            1 RES     
    3391 C1         177.8841  -167.0186    61.6640 C1            1 RES     
    3392 S2         176.5340  -166.6745    62.5882 S2            1 RES     
    3393 C1         175.4746  -166.9198    61.2737 C1            1 RES     
    3394 C1         176.1979  -167.2670    60.1269 C1            1 RES     
    3395 C1         179.2939  -167.0860    61.8000 C1            1 RES     
    3396 C1         179.8603  -167.4572    60.6145 C1            1 RES     
    3397 C1         181.2512  -167.5784    60.6975 C1            1 RES     
    3398 C1         181.7178  -167.2920    62.0062 C1            1 RES     
    3399 S2         180.4062  -166.8590    63.0096 S2            1 RES     
    3400 H3         175.7523  -167.4666    59.1623 H3            1 RES     
    3401 H3         181.8675  -167.8684    59.8599 H3            1 RES     
    3402 N4         184.7234  -166.7827    64.2251 N4            1 RES     
    3403 C1         183.4642  -166.6975    63.7089 C1            1 RES     
    3404 C1         183.1091  -167.3841    62.5245 C1            1 RES     
    3405 C1         184.1044  -168.1710    61.9172 C1            1 RES     
    3406 N4         183.9182  -168.9290    60.8072 N4            1 RES     
    3407 S2         185.3942  -169.6456    60.6076 S2            1 RES     
    3408 N4         186.2908  -169.0559    61.8629 N4            1 RES     
    3409 C1         185.4034  -168.2504    62.4946 C1            1 RES     
    3410 C1         185.6962  -167.5390    63.6503 C1            1 RES     
    3411 H5         182.7445  -166.0771    64.2253 H5            1 RES     
    3412 C0         178.8289  -166.4099    58.5077 C0            1 RES     
    3413 C0         179.9738  -165.9774    57.5253 C0            1 RES     
    3414 C0         179.7802  -164.4657    57.1370 C0            1 RES     
    3415 C0         178.6818  -164.0513    56.1134 C0            1 RES     
    3416 C0         177.1959  -164.2296    56.4887 C0            1 RES     
    3417 C0         176.7520  -163.5443    57.7955 C0            1 RES     
    3418 C0         176.9027  -162.0178    57.7600 C0            1 RES     
    3419 C0         176.3949  -161.3918    59.0571 C0            1 RES     
    3420 C0         180.1236  -166.7877    56.2060 C0            1 RES     
    3421 C0         180.9685  -168.0546    56.3032 C0            1 RES     
    3422 C0         180.9393  -168.8279    54.9720 C0            1 RES     
    3423 C0         181.7328  -170.1416    55.0502 C0            1 RES     
    3424 C0         181.4898  -170.9985    53.7956 C0            1 RES     
    3425 C0         182.0908  -172.4136    53.8845 C0            1 RES     
    3426 C0         181.4035  -173.2817    54.9575 C0            1 RES     
    3427 C0         181.9326  -174.7123    54.9486 C0            1 RES     
    3428 H6         177.8909  -166.4669    57.9378 H6            1 RES     
    3429 H6         178.7584  -165.5350    59.1910 H6            1 RES     
    3430 H6         180.9333  -165.9879    58.0888 H6            1 RES     
    3431 H6         180.7371  -164.1465    56.6658 H6            1 RES     
    3432 H6         179.6862  -163.8440    58.0531 H6            1 RES     
    3433 H6         178.8556  -164.5809    55.1531 H6            1 RES     
    3434 H6         178.8385  -162.9727    55.9001 H6            1 RES     
    3435 H6         176.9434  -165.3021    56.5286 H6            1 RES     
    3436 H6         176.5812  -163.8226    55.6564 H6            1 RES     
    3437 H6         177.3153  -163.9496    58.6561 H6            1 RES     
    3438 H6         175.6783  -163.7874    57.9535 H6            1 RES     
    3439 H6         177.9692  -161.7386    57.6329 H6            1 RES     
    3440 H6         176.3167  -161.6066    56.9097 H6            1 RES     
    3441 H6         175.3215  -161.6343    59.2101 H6            1 RES     
    3442 H6         176.5060  -160.2882    59.0073 H6            1 RES     
    3443 H6         176.9803  -161.7698    59.9225 H6            1 RES     
    3444 H6         180.6693  -166.1713    55.4563 H6            1 RES     
    3445 H6         179.1095  -166.9931    55.7974 H6            1 RES     
    3446 H6         182.0132  -167.7935    56.5800 H6            1 RES     
    3447 H6         180.5571  -168.6828    57.0814 H6            1 RES     
    3448 H6         179.8750  -169.0701    54.7537 H6            1 RES     
    3449 H6         181.3359  -168.2029    54.1424 H6            1 RES     
    3450 H6         182.8174  -169.9387    55.1821 H6            1 RES     
    3451 H6         181.3947  -170.6949    55.9350 H6            1 RES     
    3452 H6         180.3971  -171.1084    53.6165 H6            1 RES     
    3453 H6         181.9273  -170.4695    52.9203 H6            1 RES     
    3454 H6         183.1838  -172.3540    54.0743 H6            1 RES     
    3455 H6         181.9330  -172.9026    52.8984 H6            1 RES     
    3456 H6         180.3082  -173.3132    54.7641 H6            1 RES     
    3457 H6         181.5777  -172.8671    55.9678 H6            1 RES     
    3458 H6         181.4094  -175.3039    55.7274 H6            1 RES     
    3459 H6         181.7504  -175.1865    53.9604 H6            1 RES     
    3460 H6         183.0231  -174.7209    55.1658 H6            1 RES     
    3461 C0         178.5613  -169.0454    58.8763 C0            1 RES     
    3462 C0         179.5660  -170.2434    58.9411 C0            1 RES     
    3463 C0         179.3740  -171.1829    57.6999 C0            1 RES     
    3464 C0         178.1583  -172.1363    57.5928 C0            1 RES     
    3465 C0         176.7671  -171.5126    57.3596 C0            1 RES     
    3466 C0         176.6418  -170.5938    56.1259 C0            1 RES     
    3467 C0         176.9765  -171.2846    54.7975 C0            1 RES     
    3468 C0         176.7768  -170.3239    53.6269 C0            1 RES     
    3469 C0         179.5377  -171.1366    60.2161 C0            1 RES     
    3470 C0         180.0277  -170.4629    61.4868 C0            1 RES     
    3471 C0         180.1506  -171.4384    62.6581 C0            1 RES     
    3472 C0         180.6967  -170.6985    63.8846 C0            1 RES     
    3473 C0         180.8443  -171.6379    65.0876 C0            1 RES     
    3474 C0         181.4521  -170.9407    66.3167 C0            1 RES     
    3475 C0         180.5755  -169.8017    66.8615 C0            1 RES     
    3476 C0         181.1881  -169.1911    68.1174 C0            1 RES     
    3477 H6         177.5825  -169.4477    59.1902 H6            1 RES     
    3478 H6         178.4167  -168.7983    57.8129 H6            1 RES     
    3479 H6         180.5903  -169.8340    58.8414 H6            1 RES     
    3480 H6         180.2615  -171.8523    57.6918 H6            1 RES     
    3481 H6         179.4075  -170.5938    56.7679 H6            1 RES     
    3482 H6         178.1173  -172.7957    58.4834 H6            1 RES     
    3483 H6         178.3581  -172.8061    56.7289 H6            1 RES     
    3484 H6         176.4464  -170.9570    58.2570 H6            1 RES     
    3485 H6         176.0427  -172.3479    57.2443 H6            1 RES     
    3486 H6         177.2895  -169.7061    56.2318 H6            1 RES     
    3487 H6         175.5904  -170.2331    56.0851 H6            1 RES     
    3488 H6         178.0357  -171.6172    54.7938 H6            1 RES     
    3489 H6         176.3178  -172.1686    54.6580 H6            1 RES     
    3490 H6         175.7203  -169.9825    53.5830 H6            1 RES     
    3491 H6         177.0253  -170.8359    52.6741 H6            1 RES     
    3492 H6         177.4389  -169.4378    53.7368 H6            1 RES     
    3493 H6         180.2302  -171.9895    60.0374 H6            1 RES     
    3494 H6         178.5176  -171.5458    60.3823 H6            1 RES     
    3495 H6         181.0396  -170.0552    61.2920 H6            1 RES     
    3496 H6         179.3109  -169.6748    61.7698 H6            1 RES     
    3497 H6         179.1545  -171.8744    62.8886 H6            1 RES     
    3498 H6         180.8509  -172.2602    62.3864 H6            1 RES     
    3499 H6         181.6923  -170.2657    63.6389 H6            1 RES     
    3500 H6         179.9964  -169.8737    64.1306 H6            1 RES     
    3501 H6         179.8536  -172.0665    65.3540 H6            1 RES     
    3502 H6         181.5205  -172.4741    64.8036 H6            1 RES     
    3503 H6         182.4602  -170.5476    66.0581 H6            1 RES     
    3504 H6         181.5726  -171.7077    67.1129 H6            1 RES     
    3505 H6         179.5657  -170.1950    67.1086 H6            1 RES     
    3506 H6         180.4737  -168.9943    66.1071 H6            1 RES     
    3507 H6         180.5352  -168.3731    68.4883 H6            1 RES     
    3508 H6         181.2829  -169.9599    68.9135 H6            1 RES     
    3509 H6         182.1916  -168.7713    67.8915 H6            1 RES     
    3510 C0         191.0562  -167.3706    64.3273 C0            1 RES     
    3511 C1         189.5428  -167.5275    64.5229 C1            1 RES     
    3512 C1         189.2030  -167.8260    65.7964 C1            1 RES     
    3513 S2         187.5494  -167.9679    65.9979 S2            1 RES     
    3514 C1         187.2402  -167.6165    64.3574 C1            1 RES     
    3515 C1         188.4415  -167.3909    63.6755 C1            1 RES     
    3516 C1         190.3930  -167.9154    66.5624 C1            1 RES     
    3517 C1         191.4794  -167.6973    65.7647 C1            1 RES     
    3518 C1         192.6881  -167.8112    66.4591 C1            1 RES     
    3519 C1         192.4720  -168.1370    67.8228 C1            1 RES     
    3520 S2         190.7972  -168.2346    68.1392 S2            1 RES     
    3521 H3         188.5092  -167.1428    62.6254 H3            1 RES     
    3522 H3         193.6511  -167.6769    65.9899 H3            1 RES     
    3523 N4         194.0348  -168.6176    71.2204 N4            1 RES     
    3524 C1         193.1336  -168.3370    70.2363 C1            1 RES     
    3525 C1         193.4894  -168.4217    68.8701 C1            1 RES     
    3526 C1         194.8038  -168.8260    68.5742 C1            1 RES     
    3527 N4         195.2926  -169.0042    67.3209 N4            1 RES     
    3528 S2         196.8372  -169.5191    67.6056 S2            1 RES     
    3529 N4         196.9474  -169.5406    69.2532 N4            1 RES     
    3530 C1         195.7124  -169.1282    69.6278 C1            1 RES     
    3531 C1         195.3085  -169.0098    70.9508 C1            1 RES     
    3532 H5         192.1382  -168.0338    70.5306 H5            1 RES     
    3533 C0         191.2238  -165.8344    64.0145 C0            1 RES     
    3534 C0         192.5384  -164.9784    63.9670 C0            1 RES     
    3535 C0         192.1748  -163.4594    64.1509 C0            1 RES     
    3536 C0         191.5512  -162.6521    62.9738 C0            1 RES     
    3537 C0         190.1361  -163.0147    62.4773 C0            1 RES     
    3538 C0         189.0306  -163.0048    63.5507 C0            1 RES     
    3539 C0         188.8145  -161.6242    64.1844 C0            1 RES     
    3540 C0         187.6714  -161.6642    65.1963 C0            1 RES     
    3541 C0         193.4219  -165.1009    62.6927 C0            1 RES     
    3542 C0         194.4199  -166.2551    62.6913 C0            1 RES     
    3543 C0         195.1434  -166.3434    61.3349 C0            1 RES     
    3544 C0         196.1157  -167.5320    61.2757 C0            1 RES     
    3545 C0         196.6397  -167.7342    59.8433 C0            1 RES     
    3546 C0         197.4633  -169.0224    59.6598 C0            1 RES     
    3547 C0         196.6137  -170.2973    59.8329 C0            1 RES     
    3548 C0         197.4197  -171.5568    59.5317 C0            1 RES     
    3549 H6         190.6598  -165.6490    63.0896 H6            1 RES     
    3550 H6         190.6642  -165.3649    64.8533 H6            1 RES     
    3551 H6         193.1399  -165.2207    64.8713 H6            1 RES     
    3552 H6         193.1349  -162.9399    64.3694 H6            1 RES     
    3553 H6         191.5559  -163.3215    65.0634 H6            1 RES     
    3554 H6         192.2366  -162.6861    62.1010 H6            1 RES     
    3555 H6         191.5223  -161.5903    63.2984 H6            1 RES     
    3556 H6         190.1535  -163.9947    61.9726 H6            1 RES     
    3557 H6         189.8557  -162.2894    61.6826 H6            1 RES     
    3558 H6         189.2537  -163.7424    64.3433 H6            1 RES     
    3559 H6         188.0832  -163.3174    63.0591 H6            1 RES     
    3560 H6         189.7338  -161.2934    64.7106 H6            1 RES     
    3561 H6         188.5658  -160.8864    63.3910 H6            1 RES     
    3562 H6         186.7262  -161.9740    64.7012 H6            1 RES     
    3563 H6         187.5273  -160.6551    65.6364 H6            1 RES     
    3564 H6         187.9052  -162.3792    66.0139 H6            1 RES     
    3565 H6         194.0704  -164.1999    62.6074 H6            1 RES     
    3566 H6         192.7582  -165.1224    61.8001 H6            1 RES     
    3567 H6         195.1530  -166.1237    63.5169 H6            1 RES     
    3568 H6         193.8794  -167.1766    62.8597 H6            1 RES     
    3569 H6         194.3638  -166.4849    60.5531 H6            1 RES     
    3570 H6         195.6935  -165.4019    61.1179 H6            1 RES     
    3571 H6         196.9590  -167.3859    61.9845 H6            1 RES     
    3572 H6         195.5762  -168.4331    61.5922 H6            1 RES     
    3573 H6         195.7872  -167.7762    59.1294 H6            1 RES     
    3574 H6         197.2677  -166.8567    59.5732 H6            1 RES     
    3575 H6         198.3235  -169.0301    60.3628 H6            1 RES     
    3576 H6         197.8603  -169.0160    58.6211 H6            1 RES     
    3577 H6         195.7464  -170.2630    59.1367 H6            1 RES     
    3578 H6         196.2384  -170.3805    60.8698 H6            1 RES     
    3579 H6         196.7726  -172.4484    59.6603 H6            1 RES     
    3580 H6         197.7928  -171.5369    58.4853 H6            1 RES     
    3581 H6         198.2822  -171.6378    60.2288 H6            1 RES     
    3582 C0         191.4600  -168.3571    63.1579 C0            1 RES     
    3583 C0         192.5950  -169.4316    63.2353 C0            1 RES     
    3584 C0         193.1774  -169.7124    61.8064 C0            1 RES     
    3585 C0         192.3874  -170.5418    60.7641 C0            1 RES     
    3586 C0         191.1228  -169.9120    60.1454 C0            1 RES     
    3587 C0         191.3187  -168.5378    59.4709 C0            1 RES     
    3588 C0         192.3393  -168.5454    58.3253 C0            1 RES     
    3589 C0         192.4335  -167.1640    57.6804 C0            1 RES     
    3590 C0         192.2412  -170.8052    63.8775 C0            1 RES     
    3591 C0         191.9697  -170.7679    65.3720 C0            1 RES     
    3592 C0         191.8116  -172.1645    65.9746 C0            1 RES     
    3593 C0         191.5921  -172.0470    67.4872 C0            1 RES     
    3594 C0         191.4336  -173.4253    68.1405 C0            1 RES     
    3595 C0         191.2771  -173.3456    69.6687 C0            1 RES     
    3596 C0         190.0093  -172.5964    70.1089 C0            1 RES     
    3597 C0         189.8662  -172.6059    71.6271 C0            1 RES     
    3598 H6         190.5672  -168.8800    62.7734 H6            1 RES     
    3599 H6         191.7264  -167.6592    62.3487 H6            1 RES     
    3600 H6         193.4348  -168.9982    63.8128 H6            1 RES     
    3601 H6         194.1154  -170.2854    61.9734 H6            1 RES     
    3602 H6         193.4624  -168.7649    61.3187 H6            1 RES     
    3603 H6         192.1302  -171.5335    61.1887 H6            1 RES     
    3604 H6         193.0879  -170.7438    59.9255 H6            1 RES     
    3605 H6         190.3296  -169.8297    60.9076 H6            1 RES     
    3606 H6         190.7374  -170.6212    59.3810 H6            1 RES     
    3607 H6         191.6286  -167.7794    60.2109 H6            1 RES     
    3608 H6         190.3317  -168.2217    59.0668 H6            1 RES     
    3609 H6         193.3453  -168.8161    58.7091 H6            1 RES     
    3610 H6         192.0331  -169.2856    57.5551 H6            1 RES     
    3611 H6         191.4479  -166.8639    57.2639 H6            1 RES     
    3612 H6         193.1767  -167.1840    56.8564 H6            1 RES     
    3613 H6         192.7547  -166.4085    58.4298 H6            1 RES     
    3614 H6         193.1248  -171.4690    63.7452 H6            1 RES     
    3615 H6         191.3767  -171.2685    63.3544 H6            1 RES     
    3616 H6         192.8395  -170.2932    65.8682 H6            1 RES     
    3617 H6         191.0359  -170.2096    65.5493 H6            1 RES     
    3618 H6         190.9472  -172.6803    65.5032 H6            1 RES     
    3619 H6         192.7341  -172.7585    65.7851 H6            1 RES     
    3620 H6         192.4634  -171.5273    67.9452 H6            1 RES     
    3621 H6         190.6799  -171.4388    67.6576 H6            1 RES     
    3622 H6         190.5569  -173.9505    67.7028 H6            1 RES     
    3623 H6         192.3438  -174.0270    67.9241 H6            1 RES     
    3624 H6         192.1742  -172.8551    70.1073 H6            1 RES     
    3625 H6         191.2267  -174.3867    70.0562 H6            1 RES     
    3626 H6         189.1156  -173.0818    69.6604 H6            1 RES     
    3627 H6         190.0487  -171.5376    69.7789 H6            1 RES     
    3628 H6         188.9438  -172.0591    71.9159 H6            1 RES     
    3629 H6         189.7937  -173.6491    72.0014 H6            1 RES     
    3630 H6         190.7390  -172.1065    72.0994 H6            1 RES     
    3631 C0         199.6638  -169.0434    74.1519 C0            1 RES     
    3632 C1         198.2958  -169.3063    73.5092 C1            1 RES     
    3633 C1         197.5293  -170.1562    74.2281 C1            1 RES     
    3634 S2         196.0327  -170.4115    73.5277 S2            1 RES     
    3635 C1         196.3756  -169.3634    72.2261 C1            1 RES     
    3636 C1         197.6610  -168.8265    72.3620 C1            1 RES     
    3637 C1         198.2649  -170.5550    75.3728 C1            1 RES     
    3638 C1         199.5008  -169.9751    75.3591 C1            1 RES     
    3639 C1         200.2891  -170.3631    76.4474 C1            1 RES     
    3640 C1         199.5988  -171.2751    77.2865 C1            1 RES     
    3641 S2         198.0245  -171.5435    76.6831 S2            1 RES     
    3642 H3         198.1070  -168.1290    71.6668 H3            1 RES     
    3643 H3         201.2977  -170.0092    76.5991 H3            1 RES     
    3644 N4         199.6359  -173.2044    80.5258 N4            1 RES     
    3645 C1         199.1997  -172.5297    79.4241 C1            1 RES     
    3646 C1         200.1107  -171.9794    78.4928 C1            1 RES     
    3647 C1         201.4807  -172.1760    78.7437 C1            1 RES     
    3648 N4         202.4822  -171.7570    77.9295 N4            1 RES     
    3649 S2         203.8331  -172.3096    78.7050 S2            1 RES     
    3650 N4         203.2350  -173.0713    80.0427 N4            1 RES     
    3651 C1         201.8990  -172.9012    79.8953 C1            1 RES     
    3652 C1         200.9563  -173.4031    80.7823 C1            1 RES     
    3653 H5         198.1330  -172.4152    79.2880 H5            1 RES     
    3654 C0         199.5779  -167.5285    74.5800 C0            1 RES     
    3655 C0         200.5430  -166.7137    75.5115 C0            1 RES     
    3656 C0         199.7863  -165.4508    76.0644 C0            1 RES     
    3657 C0         199.5493  -164.2130    75.1491 C0            1 RES     
    3658 C0         198.6100  -164.3441    73.9322 C0            1 RES     
    3659 C0         197.1861  -164.8458    74.2406 C0            1 RES     
    3660 C0         196.4001  -163.9064    75.1648 C0            1 RES     
    3661 C0         194.9814  -164.4257    75.3874 C0            1 RES     
    3662 C0         201.8850  -166.2266    74.8941 C0            1 RES     
    3663 C0         203.0319  -167.2323    74.9333 C0            1 RES     
    3664 C0         204.2608  -166.6811    74.1870 C0            1 RES     
    3665 C0         205.4179  -167.6919    74.1551 C0            1 RES     
    3666 C0         206.5319  -167.2125    73.2082 C0            1 RES     
    3667 C0         207.6355  -168.2594    72.9682 C0            1 RES     
    3668 C0         207.1228  -169.4938    72.1997 C0            1 RES     
    3669 C0         208.2542  -170.4622    71.8698 C0            1 RES     
    3670 H6         199.4337  -166.9578    73.6518 H6            1 RES     
    3671 H6         198.6212  -167.5020    75.1469 H6            1 RES     
    3672 H6         200.7422  -167.3250    76.4198 H6            1 RES     
    3673 H6         200.4089  -165.0645    76.9026 H6            1 RES     
    3674 H6         198.8254  -165.7546    76.5325 H6            1 RES     
    3675 H6         200.5268  -163.8329    74.7845 H6            1 RES     
    3676 H6         199.1340  -163.4137    75.7989 H6            1 RES     
    3677 H6         199.0724  -164.9893    73.1671 H6            1 RES     
    3678 H6         198.5301  -163.3444    73.4520 H6            1 RES     
    3679 H6         197.2198  -165.8569    74.6865 H6            1 RES     
    3680 H6         196.6415  -164.9240    73.2741 H6            1 RES     
    3681 H6         196.9013  -163.8284    76.1518 H6            1 RES     
    3682 H6         196.3443  -162.8955    74.7059 H6            1 RES     
    3683 H6         194.4395  -164.4997    74.4203 H6            1 RES     
    3684 H6         194.4287  -163.7283    76.0515 H6            1 RES     
    3685 H6         195.0084  -165.4276    75.8669 H6            1 RES     
    3686 H6         202.2737  -165.3698    75.4897 H6            1 RES     
    3687 H6         201.6893  -165.8573    73.8632 H6            1 RES     
    3688 H6         203.2906  -167.4717    75.9878 H6            1 RES     
    3689 H6         202.7072  -168.1424    74.4476 H6            1 RES     
    3690 H6         203.9452  -166.4716    73.1403 H6            1 RES     
    3691 H6         204.6097  -165.7310    74.6470 H6            1 RES     
    3692 H6         205.8190  -167.8629    75.1772 H6            1 RES     
    3693 H6         205.0264  -168.6508    73.7938 H6            1 RES     
    3694 H6         206.1002  -166.9466    72.2177 H6            1 RES     
    3695 H6         206.9866  -166.2937    73.6398 H6            1 RES     
    3696 H6         208.0904  -168.5645    73.9347 H6            1 RES     
    3697 H6         208.4218  -167.7750    72.3489 H6            1 RES     
    3698 H6         206.6525  -169.1681    71.2453 H6            1 RES     
    3699 H6         206.3745  -170.0454    72.7986 H6            1 RES     
    3700 H6         207.8462  -171.3301    71.3126 H6            1 RES     
    3701 H6         209.0196  -169.9627    71.2381 H6            1 RES     
    3702 H6         208.7311  -170.8299    72.8046 H6            1 RES     
    3703 C0         200.7475  -169.3850    73.0507 C0            1 RES     
    3704 C0         201.9616  -170.3522    73.2489 C0            1 RES     
    3705 C0         203.1438  -169.9431    72.3030 C0            1 RES     
    3706 C0         203.0933  -170.2294    70.7818 C0            1 RES     
    3707 C0         202.1014  -169.4169    69.9246 C0            1 RES     
    3708 C0         202.2323  -167.8821    70.0203 C0            1 RES     
    3709 C0         203.6121  -167.3476    69.6149 C0            1 RES     
    3710 C0         203.6399  -165.8221    69.6871 C0            1 RES     
    3711 C0         201.7064  -171.8754    73.0514 C0            1 RES     
    3712 C0         200.8258  -172.5242    74.1060 C0            1 RES     
    3713 C0         200.7638  -174.0455    73.9637 C0            1 RES     
    3714 C0         199.9020  -174.6298    75.0888 C0            1 RES     
    3715 C0         199.8137  -176.1577    74.9931 C0            1 RES     
    3716 C0         199.0092  -176.7812    76.1464 C0            1 RES     
    3717 C0         197.5366  -176.3412    76.1643 C0            1 RES     
    3718 C0         196.7693  -177.0395    77.2819 C0            1 RES     
    3719 H6         200.2550  -169.6978    72.1136 H6            1 RES     
    3720 H6         201.1579  -168.3908    72.8143 H6            1 RES     
    3721 H6         202.3471  -170.2077    74.2771 H6            1 RES     
    3722 H6         204.0286  -170.5081    72.6691 H6            1 RES     
    3723 H6         203.3747  -168.8713    72.4241 H6            1 RES     
    3724 H6         202.9241  -171.3114    70.6077 H6            1 RES     
    3725 H6         204.1094  -170.0142    70.3866 H6            1 RES     
    3726 H6         201.0653  -169.7063    70.1686 H6            1 RES     
    3727 H6         202.2578  -169.7124    68.8644 H6            1 RES     
    3728 H6         202.0086  -167.5334    71.0436 H6            1 RES     
    3729 H6         201.4665  -167.4401    69.3455 H6            1 RES     
    3730 H6         204.3924  -167.7395    70.3005 H6            1 RES     
    3731 H6         203.8476  -167.6662    68.5766 H6            1 RES     
    3732 H6         202.8843  -165.3887    68.9971 H6            1 RES     
    3733 H6         204.6438  -165.4504    69.3943 H6            1 RES     
    3734 H6         203.4227  -165.4800    70.7222 H6            1 RES     
    3735 H6         202.6922  -172.3873    73.1212 H6            1 RES     
    3736 H6         201.2833  -172.0717    72.0424 H6            1 RES     
    3737 H6         201.2622  -172.3054    75.1009 H6            1 RES     
    3738 H6         199.8020  -172.1279    74.0065 H6            1 RES     
    3739 H6         200.3313  -174.3120    72.9750 H6            1 RES     
    3740 H6         201.7913  -174.4684    74.0345 H6            1 RES     
    3741 H6         200.3452  -174.3536    76.0718 H6            1 RES     
    3742 H6         198.8880  -174.1853    75.0135 H6            1 RES     
    3743 H6         199.3584  -176.4481    74.0212 H6            1 RES     
    3744 H6         200.8437  -176.5756    75.0338 H6            1 RES     
    3745 H6         199.4901  -176.5218    77.1155 H6            1 RES     
    3746 H6         199.0481  -177.8859    76.0246 H6            1 RES     
    3747 H6         197.0616  -176.5916    75.1910 H6            1 RES     
    3748 H6         197.4595  -175.2471    76.3325 H6            1 RES     
    3749 H6         195.7109  -176.7036    77.2708 H6            1 RES     
    3750 H6         196.7950  -178.1406    77.1382 H6            1 RES     
    3751 H6         197.2126  -176.7879    78.2690 H6            1 RES     
    3752 C0         203.4103  -174.7812    85.3970 C0            1 RES     
    3753 C1         202.5505  -174.7562    84.1268 C1            1 RES     
    3754 C1         201.7776  -175.8565    83.9905 C1            1 RES     
    3755 S2         200.8282  -175.8016    82.6154 S2            1 RES     
    3756 C1         201.4313  -174.2707    82.1650 C1            1 RES     
    3757 C1         202.3689  -173.8241    83.1033 C1            1 RES     
    3758 C1         202.0291  -176.7130    85.0923 C1            1 RES     
    3759 C1         202.9769  -176.1615    85.9057 C1            1 RES     
    3760 C1         203.2957  -176.9816    86.9929 C1            1 RES     
    3761 C1         202.5532  -178.1899    86.9642 C1            1 RES     
    3762 S2         201.4977  -178.1923    85.6223 S2            1 RES     
    3763 H3         202.8879  -172.8776    83.0435 H3            1 RES     
    3764 H3         204.0283  -176.7116    87.7386 H3            1 RES     
    3765 N4         201.6688  -181.3741    88.7796 N4            1 RES     
    3766 C1         201.5951  -180.2843    87.9634 C1            1 RES     
    3767 C1         202.6556  -179.3516    87.8878 C1            1 RES     
    3768 C1         203.7927  -179.6092    88.6746 C1            1 RES     
    3769 N4         204.9138  -178.8446    88.6842 N4            1 RES     
    3770 S2         205.8961  -179.6571    89.7362 S2            1 RES     
    3771 N4         204.9866  -180.9548    90.2013 N4            1 RES     
    3772 C1         203.8417  -180.7670    89.5018 C1            1 RES     
    3773 C1         202.7608  -181.6371    89.5460 C1            1 RES     
    3774 H5         200.6938  -180.1450    87.3824 H5            1 RES     
    3775 C0         202.7934  -173.6259    86.2749 C0            1 RES     
    3776 C0         203.0475  -173.2987    87.7886 C0            1 RES     
    3777 C0         201.8514  -172.4400    88.3412 C0            1 RES     
    3778 C0         201.7388  -170.9278    87.9851 C0            1 RES     
    3779 C0         201.4660  -170.5159    86.5235 C0            1 RES     
    3780 C0         200.2103  -171.1352    85.8801 C0            1 RES     
    3781 C0         198.9080  -170.7334    86.5850 C0            1 RES     
    3782 C0         197.6974  -171.3295    85.8699 C0            1 RES     
    3783 C0         204.3662  -172.5545    88.1443 C0            1 RES     
    3784 C0         205.5906  -173.4428    88.3449 C0            1 RES     
    3785 C0         206.8500  -172.5858    88.5692 C0            1 RES     
    3786 C0         208.1148  -173.4462    88.7170 C0            1 RES     
    3787 C0         209.3761  -172.5652    88.7005 C0            1 RES     
    3788 C0         210.6910  -173.3648    88.6451 C0            1 RES     
    3789 C0         210.8627  -174.1296    87.3174 C0            1 RES     
    3790 C0         212.2214  -174.8181    87.2354 C0            1 RES     
    3791 H6         202.9259  -172.7007    85.6967 H6            1 RES     
    3792 H6         201.7107  -173.8805    86.2648 H6            1 RES     
    3793 H6         202.9811  -174.2499    88.3623 H6            1 RES     
    3794 H6         201.9477  -172.4604    89.4502 H6            1 RES     
    3795 H6         200.8854  -172.9444    88.1243 H6            1 RES     
    3796 H6         202.6572  -170.4017    88.3207 H6            1 RES     
    3797 H6         200.9101  -170.5184    88.6009 H6            1 RES     
    3798 H6         202.3481  -170.7345    85.8995 H6            1 RES     
    3799 H6         201.3624  -169.4092    86.4933 H6            1 RES     
    3800 H6         200.2908  -172.2375    85.8565 H6            1 RES     
    3801 H6         200.1634  -170.7802    84.8271 H6            1 RES     
    3802 H6         198.9082  -171.0987    87.6328 H6            1 RES     
    3803 H6         198.8138  -169.6258    86.5875 H6            1 RES     
    3804 H6         197.6522  -170.9705    84.8195 H6            1 RES     
    3805 H6         196.7669  -171.0206    86.3910 H6            1 RES     
    3806 H6         197.7556  -172.4390    85.8731 H6            1 RES     
    3807 H6         204.2493  -172.0510    89.1306 H6            1 RES     
    3808 H6         204.5452  -171.7635    87.3829 H6            1 RES     
    3809 H6         205.4258  -174.1272    89.2055 H6            1 RES     
    3810 H6         205.7295  -174.0420    87.4554 H6            1 RES     
    3811 H6         206.9689  -171.9329    87.6755 H6            1 RES     
    3812 H6         206.7338  -171.9387    89.4657 H6            1 RES     
    3813 H6         208.0719  -174.0517    89.6478 H6            1 RES     
    3814 H6         208.1540  -174.1468    87.8738 H6            1 RES     
    3815 H6         209.3562  -171.8900    87.8162 H6            1 RES     
    3816 H6         209.3717  -171.9307    89.6141 H6            1 RES     
    3817 H6         210.7506  -174.0636    89.5068 H6            1 RES     
    3818 H6         211.5257  -172.6349    88.7282 H6            1 RES     
    3819 H6         210.7796  -173.4185    86.4657 H6            1 RES     
    3820 H6         210.0858  -174.9094    87.2109 H6            1 RES     
    3821 H6         212.3077  -175.3493    86.2655 H6            1 RES     
    3822 H6         213.0396  -174.0696    87.3043 H6            1 RES     
    3823 H6         212.3285  -175.5578    88.0587 H6            1 RES     
    3824 C0         204.9058  -174.5631    84.9283 C0            1 RES     
    3825 C0         206.1122  -175.4874    85.3012 C0            1 RES     
    3826 C0         207.4494  -174.6678    85.2914 C0            1 RES     
    3827 C0         208.1191  -174.2363    83.9634 C0            1 RES     
    3828 C0         207.4234  -173.1469    83.1220 C0            1 RES     
    3829 C0         207.1324  -171.8188    83.8521 C0            1 RES     
    3830 C0         208.3829  -171.1273    84.4107 C0            1 RES     
    3831 C0         208.0139  -169.7992    85.0687 C0            1 RES     
    3832 C0         206.3351  -176.7619    84.4352 C0            1 RES     
    3833 C0         205.2723  -177.8374    84.5844 C0            1 RES     
    3834 C0         205.6401  -179.1309    83.8564 C0            1 RES     
    3835 C0         204.5484  -180.1803    84.0949 C0            1 RES     
    3836 C0         204.8751  -181.5014    83.3881 C0            1 RES     
    3837 C0         203.8308  -182.5972    83.6615 C0            1 RES     
    3838 C0         202.4321  -182.2466    83.1293 C0            1 RES     
    3839 C0         201.4532  -183.3921    83.3639 C0            1 RES     
    3840 H6         204.9477  -174.4294    83.8334 H6            1 RES     
    3841 H6         205.1283  -173.5603    85.3255 H6            1 RES     
    3842 H6         205.9782  -175.8146    86.3508 H6            1 RES     
    3843 H6         208.2013  -175.3169    85.7909 H6            1 RES     
    3844 H6         207.3449  -173.7617    85.9116 H6            1 RES     
    3845 H6         208.3024  -175.1263    83.3276 H6            1 RES     
    3846 H6         209.1234  -173.8426    84.2302 H6            1 RES     
    3847 H6         206.4834  -173.5390    82.6983 H6            1 RES     
    3848 H6         208.0804  -172.9274    82.2525 H6            1 RES     
    3849 H6         206.4196  -171.9758    84.6805 H6            1 RES     
    3850 H6         206.6447  -171.1370    83.1209 H6            1 RES     
    3851 H6         208.8666  -171.7690    85.1767 H6            1 RES     
    3852 H6         209.1051  -170.9366    83.5880 H6            1 RES     
    3853 H6         207.5437  -169.1180    84.3273 H6            1 RES     
    3854 H6         208.9270  -169.3124    85.4703 H6            1 RES     
    3855 H6         207.3034  -169.9672    85.9069 H6            1 RES     
    3856 H6         207.2884  -177.2274    84.7719 H6            1 RES     
    3857 H6         206.4405  -176.4904    83.3625 H6            1 RES     
    3858 H6         205.1791  -178.0823    85.6612 H6            1 RES     
    3859 H6         204.3259  -177.4624    84.1615 H6            1 RES     
    3860 H6         205.7454  -178.9314    82.7680 H6            1 RES     
    3861 H6         206.6083  -179.5165    84.2484 H6            1 RES     
    3862 H6         204.4526  -180.3684    85.1878 H6            1 RES     
    3863 H6         203.5889  -179.7731    83.7143 H6            1 RES     
    3864 H6         204.9589  -181.3312    82.2926 H6            1 RES     
    3865 H6         205.8570  -181.8689    83.7596 H6            1 RES     
    3866 H6         203.7779  -182.7932    84.7553 H6            1 RES     
    3867 H6         204.1790  -183.5262    83.1591 H6            1 RES     
    3868 H6         202.4898  -182.0407    82.0386 H6            1 RES     
    3869 H6         202.0333  -181.3489    83.6455 H6            1 RES     
    3870 H6         200.4534  -183.1118    82.9703 H6            1 RES     
    3871 H6         201.7984  -184.3083    82.8394 H6            1 RES     
    3872 H6         201.3616  -183.6040    84.4507 H6            1 RES     
    3873 C0         203.2730  -184.8966    93.8274 C0            1 RES     
    3874 C1         203.0552  -184.3195    92.4227 C1            1 RES     
    3875 C1         202.6994  -185.2566    91.5162 C1            1 RES     
    3876 S2         202.4407  -184.6075    89.9973 S2            1 RES     
    3877 C1         202.7949  -183.0251    90.5271 C1            1 RES     
    3878 C1         203.1096  -183.0298    91.8909 C1            1 RES     
    3879 C1         202.6549  -186.5128    92.1726 C1            1 RES     
    3880 C1         203.0065  -186.3673    93.4838 C1            1 RES     
    3881 C1         203.0184  -187.5828    94.1755 C1            1 RES     
    3882 C1         202.6691  -188.6641    93.3264 C1            1 RES     
    3883 S2         202.3172  -188.0836    91.7600 S2            1 RES     
    3884 H3         203.3634  -182.1470    92.4610 H3            1 RES     
    3885 H3         203.2777  -187.6625    95.2205 H3            1 RES     
    3886 N4         201.8825  -192.3444    93.0936 N4            1 RES     
    3887 C1         201.9057  -191.0053    92.8375 C1            1 RES     
    3888 C1         202.6426  -190.1153    93.6530 C1            1 RES     
    3889 C1         203.3632  -190.6748    94.7236 C1            1 RES     
    3890 N4         204.1567  -189.9717    95.5706 N4            1 RES     
    3891 S2         204.7615  -191.1495    96.5601 S2            1 RES     
    3892 N4         204.0779  -192.5376    95.9828 N4            1 RES     
    3893 C1         203.3299  -192.0800    94.9501 C1            1 RES     
    3894 C1         202.5737  -192.9005    94.1241 C1            1 RES     
    3895 H5         201.3318  -190.6389    91.9973 H5            1 RES     
    3896 C0         202.0868  -184.2776    94.6613 C0            1 RES     
    3897 C0         201.5883  -184.6645    96.0983 C0            1 RES     
    3898 C0         200.1047  -184.1760    96.2813 C0            1 RES     
    3899 C0         199.7981  -182.6693    96.5300 C0            1 RES     
    3900 C0         200.0823  -181.6473    95.4097 C0            1 RES     
    3901 C0         199.4057  -181.9372    94.0561 C0            1 RES     
    3902 C0         197.8731  -181.9274    94.1308 C0            1 RES     
    3903 C0         197.2608  -182.1632    92.7519 C0            1 RES     
    3904 C0         202.4125  -184.1317    97.3050 C0            1 RES     
    3905 C0         203.6082  -184.9865    97.7151 C0            1 RES     
    3906 C0         204.4096  -184.2950    98.8334 C0            1 RES     
    3907 C0         205.6563  -185.1002    99.2324 C0            1 RES     
    3908 C0         206.5558  -184.2784   100.1721 C0            1 RES     
    3909 C0         207.9182  -184.9363   100.4596 C0            1 RES     
    3910 C0         208.8136  -185.0139    99.2069 C0            1 RES     
    3911 C0         210.1991  -185.5597    99.5375 C0            1 RES     
    3912 H6         202.2281  -183.1881    94.6288 H6            1 RES     
    3913 H6         201.2057  -184.5247    94.0291 H6            1 RES     
    3914 H6         201.5129  -185.7736    96.1495 H6            1 RES     
    3915 H6         199.7228  -184.6935    97.1901 H6            1 RES     
    3916 H6         199.4727  -184.5498    95.4473 H6            1 RES     
    3917 H6         200.3329  -182.3310    97.4424 H6            1 RES     
    3918 H6         198.7153  -182.6016    96.7681 H6            1 RES     
    3919 H6         201.1699  -181.5399    95.2647 H6            1 RES     
    3920 H6         199.7416  -180.6492    95.7621 H6            1 RES     
    3921 H6         199.7480  -182.9076    93.6519 H6            1 RES     
    3922 H6         199.7274  -181.1456    93.3441 H6            1 RES     
    3923 H6         197.5153  -182.7270    94.8121 H6            1 RES     
    3924 H6         197.5265  -180.9431    94.5139 H6            1 RES     
    3925 H6         197.5819  -181.3691    92.0443 H6            1 RES     
    3926 H6         196.1532  -182.1447    92.8274 H6            1 RES     
    3927 H6         197.5740  -183.1526    92.3551 H6            1 RES     
    3928 H6         201.7720  -184.1315    98.2158 H6            1 RES     
    3929 H6         202.7042  -183.0781    97.0995 H6            1 RES     
    3930 H6         203.2615  -185.9896    98.0464 H6            1 RES     
    3931 H6         204.2496  -185.1154    96.8539 H6            1 RES     
    3932 H6         204.7377  -183.3061    98.4419 H6            1 RES     
    3933 H6         203.7736  -184.1261    99.7296 H6            1 RES     
    3934 H6         205.3676  -186.0620    99.7084 H6            1 RES     
    3935 H6         206.2151  -185.3426    98.3202 H6            1 RES     
    3936 H6         206.7534  -183.2770    99.7290 H6            1 RES     
    3937 H6         206.0134  -184.1259   101.1311 H6            1 RES     
    3938 H6         207.7705  -185.9476   100.8951 H6            1 RES     
    3939 H6         208.4387  -184.3040   101.2117 H6            1 RES     
    3940 H6         208.9336  -183.9966    98.7725 H6            1 RES     
    3941 H6         208.3655  -185.6788    98.4452 H6            1 RES     
    3942 H6         210.8126  -185.5927    98.6141 H6            1 RES     
    3943 H6         210.7068  -184.9048   100.2777 H6            1 RES     
    3944 H6         210.1190  -186.5890    99.9503 H6            1 RES     
    3945 C0         204.7267  -184.4560    94.2706 C0            1 RES     
    3946 C0         205.8421  -185.4212    94.7932 C0            1 RES     
    3947 C0         206.8197  -184.6556    95.7514 C0            1 RES     
    3948 C0         207.8660  -183.6550    95.2014 C0            1 RES     
    3949 C0         207.3565  -182.3190    94.6231 C0            1 RES     
    3950 C0         206.4766  -181.4717    95.5662 C0            1 RES     
    3951 C0         207.1676  -181.0792    96.8786 C0            1 RES     
    3952 C0         206.2502  -180.2009    97.7272 C0            1 RES     
    3953 C0         206.7074  -186.1610    93.7311 C0            1 RES     
    3954 C0         205.9711  -187.2117    92.9172 C0            1 RES     
    3955 C0         206.9091  -188.0274    92.0264 C0            1 RES     
    3956 C0         206.1035  -189.0958    91.2785 C0            1 RES     
    3957 C0         207.0029  -189.9466    90.3737 C0            1 RES     
    3958 C0         206.2350  -191.0712    89.6583 C0            1 RES     
    3959 C0         205.1556  -190.5498    88.6962 C0            1 RES     
    3960 C0         204.4731  -191.6996    87.9630 C0            1 RES     
    3961 H6         205.1964  -183.8408    93.4836 H6            1 RES     
    3962 H6         204.5142  -183.7365    95.0768 H6            1 RES     
    3963 H6         205.3572  -186.1907    95.4253 H6            1 RES     
    3964 H6         207.4188  -185.4430    96.2584 H6            1 RES     
    3965 H6         206.2497  -184.1305    96.5362 H6            1 RES     
    3966 H6         208.5076  -184.1568    94.4488 H6            1 RES     
    3967 H6         208.5366  -183.4016    96.0505 H6            1 RES     
    3968 H6         206.8083  -182.4985    93.6828 H6            1 RES     
    3969 H6         208.2475  -181.7151    94.3450 H6            1 RES     
    3970 H6         205.5395  -182.0025    95.8090 H6            1 RES     
    3971 H6         206.1989  -180.5443    95.0184 H6            1 RES     
    3972 H6         207.4175  -181.9867    97.4673 H6            1 RES     
    3973 H6         208.1025  -180.5206    96.6578 H6            1 RES     
    3974 H6         205.9923  -179.2690    97.1797 H6            1 RES     
    3975 H6         206.7617  -179.9277    98.6735 H6            1 RES     
    3976 H6         205.3136  -180.7460    97.9747 H6            1 RES     
    3977 H6         207.5080  -186.7065    94.2792 H6            1 RES     
    3978 H6         207.1904  -185.4313    93.0456 H6            1 RES     
    3979 H6         205.4908  -187.9190    93.6222 H6            1 RES     
    3980 H6         205.2348  -186.7077    92.2700 H6            1 RES     
    3981 H6         207.4156  -187.3549    91.3007 H6            1 RES     
    3982 H6         207.6801  -188.5264    92.6559 H6            1 RES     
    3983 H6         205.6005  -189.7599    92.0167 H6            1 RES     
    3984 H6         205.3300  -188.5825    90.6705 H6            1 RES     
    3985 H6         207.5008  -189.2976    89.6208 H6            1 RES     
    3986 H6         207.7904  -190.4199    91.0008 H6            1 RES     
    3987 H6         205.7709  -191.7417    90.4151 H6            1 RES     
    3988 H6         206.9733  -191.6644    89.0755 H6            1 RES     
    3989 H6         205.6202  -189.8716    87.9481 H6            1 RES     
    3990 H6         204.3747  -189.9919    89.2532 H6            1 RES     
    3991 H6         203.7001  -191.2945    87.2764 H6            1 RES     
    3992 H6         205.2151  -192.2715    87.3663 H6            1 RES     
    3993 H6         203.9820  -192.3821    88.6893 H6            1 RES     
    3994 C0         201.9782  -197.7311    96.4752 C0            1 RES     
    3995 C1         202.2472  -196.5863    95.4899 C1            1 RES     
    3996 C1         202.5438  -197.0201    94.2448 C1            1 RES     
    3997 S2         202.8085  -195.7604    93.1778 S2            1 RES     
    3998 C1         202.5169  -194.5809    94.3753 C1            1 RES     
    3999 C1         202.2139  -195.1946    95.5962 C1            1 RES     
    4000 C1         202.5249  -198.4379    94.2540 C1            1 RES     
    4001 C1         202.2408  -198.8931    95.5094 C1            1 RES     
    4002 C1         202.2464  -200.2894    95.5893 C1            1 RES     
    4003 C1         202.5588  -200.8776    94.3368 C1            1 RES     
    4004 S2         202.7784  -199.6596    93.1608 S2            1 RES     
    4005 H3         201.9837  -194.6595    96.5069 H3            1 RES     
    4006 H3         202.0482  -200.8271    96.5043 H3            1 RES     
    4007 N4         202.8452  -204.0716    92.3537 N4            1 RES     
    4008 C1         202.6558  -202.7613    92.6801 C1            1 RES     
    4009 C1         202.7419  -202.3197    94.0209 C1            1 RES     
    4010 C1         203.0499  -203.2862    94.9953 C1            1 RES     
    4011 N4         203.2165  -203.0243    96.3163 N4            1 RES     
    4012 S2         203.6046  -204.5081    96.9325 S2            1 RES     
    4013 N4         203.5825  -205.5003    95.6125 N4            1 RES     
    4014 C1         203.2587  -204.6423    94.6152 C1            1 RES     
    4015 C1         203.1437  -205.0177    93.2835 C1            1 RES     
    4016 H5         202.4241  -202.0678    91.8833 H5            1 RES     
    4017 C0         200.4407  -197.5833    96.7914 C0            1 RES     
    4018 C0         199.4871  -198.5895    97.5271 C0            1 RES     
    4019 C0         197.9971  -198.2706    97.1379 C0            1 RES     
    4020 C0         197.2656  -197.0466    97.7645 C0            1 RES     
    4021 C0         197.7466  -195.6222    97.4178 C0            1 RES     
    4022 C0         197.7991  -195.2841    95.9154 C0            1 RES     
    4023 C0         196.4261  -195.3442    95.2330 C0            1 RES     
    4024 C0         196.5326  -194.9448    93.7629 C0            1 RES     
    4025 C0         199.5682  -198.6413    99.0796 C0            1 RES     
    4026 C0         200.6419  -199.5616    99.6529 C0            1 RES     
    4027 C0         200.7029  -199.4325   101.1861 C0            1 RES     
    4028 C0         201.8140  -200.3023   101.7948 C0            1 RES     
    4029 C0         202.0056  -199.9739   103.2857 C0            1 RES     
    4030 C0         203.2302  -200.6595   103.9198 C0            1 RES     
    4031 C0         204.5628  -200.1418   103.3425 C0            1 RES     
    4032 C0         205.7625  -200.7463   104.0649 C0            1 RES     
    4033 H6         200.3191  -196.5940    97.2543 H6            1 RES     
    4034 H6         199.9981  -197.5379    95.7719 H6            1 RES     
    4035 H6         199.6631  -199.6032    97.1032 H6            1 RES     
    4036 H6         197.4007  -199.1516    97.4657 H6            1 RES     
    4037 H6         197.8880  -198.2411    96.0325 H6            1 RES     
    4038 H6         197.2651  -197.1453    98.8705 H6            1 RES     
    4039 H6         196.2024  -197.1186    97.4511 H6            1 RES     
    4040 H6         198.7328  -195.4361    97.8740 H6            1 RES     
    4041 H6         197.0621  -194.8995    97.9132 H6            1 RES     
    4042 H6         198.5003  -195.9587    95.3908 H6            1 RES     
    4043 H6         198.1942  -194.2490    95.8183 H6            1 RES     
    4044 H6         196.0143  -196.3733    95.2853 H6            1 RES     
    4045 H6         195.7267  -194.6477    95.7443 H6            1 RES     
    4046 H6         196.9248  -193.9095    93.6699 H6            1 RES     
    4047 H6         195.5284  -194.9877    93.2909 H6            1 RES     
    4048 H6         197.2099  -195.6404    93.2226 H6            1 RES     
    4049 H6         198.6219  -199.0676    99.4828 H6            1 RES     
    4050 H6         199.6598  -197.6022    99.4662 H6            1 RES     
    4051 H6         200.4368  -200.6137    99.3577 H6            1 RES     
    4052 H6         201.5985  -199.2724    99.2395 H6            1 RES     
    4053 H6         200.9207  -198.3661   101.4196 H6            1 RES     
    4054 H6         199.7266  -199.7016   101.6450 H6            1 RES     
    4055 H6         201.5883  -201.3817   101.6571 H6            1 RES     
    4056 H6         202.7471  -200.0932   101.2573 H6            1 RES     
    4057 H6         202.1284  -198.8762   103.4201 H6            1 RES     
    4058 H6         201.0883  -200.2840   103.8330 H6            1 RES     
    4059 H6         203.1566  -201.7615   103.7999 H6            1 RES     
    4060 H6         203.2153  -200.4239   105.0064 H6            1 RES     
    4061 H6         204.6102  -199.0355   103.4521 H6            1 RES     
    4062 H6         204.6526  -200.4004   102.2710 H6            1 RES     
    4063 H6         206.6984  -200.3442   103.6260 H6            1 RES     
    4064 H6         205.7361  -200.4855   105.1446 H6            1 RES     
    4065 H6         205.7620  -201.8526   103.9531 H6            1 RES     
    4066 C0         202.9553  -197.5055    97.6992 C0            1 RES     
    4067 C0         203.9373  -198.5769    98.2793 C0            1 RES     
    4068 C0         204.2027  -198.3052    99.8010 C0            1 RES     
    4069 C0         205.1125  -197.1405   100.2637 C0            1 RES     
    4070 C0         204.5953  -195.6995   100.0774 C0            1 RES     
    4071 C0         203.2247  -195.3905   100.7160 C0            1 RES     
    4072 C0         203.1780  -195.6182   102.2325 C0            1 RES     
    4073 C0         201.8074  -195.2398   102.7907 C0            1 RES     
    4074 C0         205.3201  -198.7365    97.5817 C0            1 RES     
    4075 C0         205.2721  -199.3220    96.1804 C0            1 RES     
    4076 C0         206.6636  -199.6251    95.6232 C0            1 RES     
    4077 C0         206.5313  -200.2579    94.2333 C0            1 RES     
    4078 C0         207.9034  -200.5869    93.6329 C0            1 RES     
    4079 C0         207.8036  -201.2836    92.2651 C0            1 RES     
    4080 C0         207.1451  -200.4084    91.1868 C0            1 RES     
    4081 C0         207.1334  -201.1176    89.8368 C0            1 RES     
    4082 H6         203.5536  -196.5903    97.5473 H6            1 RES     
    4083 H6         202.2564  -197.2333    98.5055 H6            1 RES     
    4084 H6         203.4282  -199.5599    98.2428 H6            1 RES     
    4085 H6         204.6980  -199.2229   100.1864 H6            1 RES     
    4086 H6         203.2467  -198.2049   100.3420 H6            1 RES     
    4087 H6         206.1118  -197.2330    99.7918 H6            1 RES     
    4088 H6         205.2776  -197.2833   101.3533 H6            1 RES     
    4089 H6         204.5582  -195.4468    99.0042 H6            1 RES     
    4090 H6         205.3482  -195.0149   100.5250 H6            1 RES     
    4091 H6         202.4291  -195.9950   100.2464 H6            1 RES     
    4092 H6         202.9943  -194.3222   100.5087 H6            1 RES     
    4093 H6         203.3621  -196.6879   102.4660 H6            1 RES     
    4094 H6         203.9558  -194.9990   102.7289 H6            1 RES     
    4095 H6         201.5931  -194.1672   102.5950 H6            1 RES     
    4096 H6         201.7876  -195.4124   103.8869 H6            1 RES     
    4097 H6         201.0137  -195.8591   102.3195 H6            1 RES     
    4098 H6         205.9165  -199.4524    98.1904 H6            1 RES     
    4099 H6         205.8597  -197.7649    97.5598 H6            1 RES     
    4100 H6         204.7213  -200.2825    96.2274 H6            1 RES     
    4101 H6         204.7838  -198.5968    95.5091 H6            1 RES     
    4102 H6         207.2544  -198.6858    95.5594 H6            1 RES     
    4103 H6         207.1886  -200.3371    96.2994 H6            1 RES     
    4104 H6         205.9363  -201.1954    94.3119 H6            1 RES     
    4105 H6         205.9917  -199.5430    93.5783 H6            1 RES     
    4106 H6         208.5038  -199.6564    93.5343 H6            1 RES     
    4107 H6         208.4376  -201.2745    94.3251 H6            1 RES     
    4108 H6         207.2362  -202.2343    92.3748 H6            1 RES     
    4109 H6         208.8370  -201.5322    91.9382 H6            1 RES     
    4110 H6         207.7074  -199.4548    91.0870 H6            1 RES     
    4111 H6         206.0937  -200.1806    91.4591 H6            1 RES     
    4112 H6         206.6533  -200.4635    89.0786 H6            1 RES     
    4113 H6         208.1709  -201.3407    89.5091 H6            1 RES     
    4114 H6         206.5583  -202.0657    89.9048 H6            1 RES     
    4115 C0         202.7735  -210.4015    92.9768 C0            1 RES     
    4116 C1         203.1546  -208.9292    92.7758 C1            1 RES     
    4117 C1         204.0455  -208.7461    91.7762 C1            1 RES     
    4118 S2         204.4303  -207.1343    91.5533 S2            1 RES     
    4119 C1         203.3868  -206.6309    92.8054 C1            1 RES     
    4120 C1         202.7496  -207.7370    93.3793 C1            1 RES     
    4121 C1         204.3621  -210.0148    91.2278 C1            1 RES     
    4122 C1         203.6891  -210.9948    91.8991 C1            1 RES     
    4123 C1         203.9919  -212.2759    91.4264 C1            1 RES     
    4124 C1         204.9364  -212.2268    90.3691 C1            1 RES     
    4125 S2         205.3381  -210.6040    90.0228 S2            1 RES     
    4126 H3         202.0347  -207.6770    94.1881 H3            1 RES     
    4127 H3         203.5581  -213.1736    91.8406 H3            1 RES     
    4128 N4         206.7878  -214.1714    87.7219 N4            1 RES     
    4129 C1         206.1723  -213.1550    88.3908 C1            1 RES     
    4130 C1         205.5733  -213.3656    89.6545 C1            1 RES     
    4131 C1         205.6584  -214.6610    90.1960 C1            1 RES     
    4132 N4         205.1808  -215.0210    91.4141 N4            1 RES     
    4133 S2         205.6110  -216.6137    91.5144 S2            1 RES     
    4134 N4         206.3879  -216.9020    90.0858 N4            1 RES     
    4135 C1         206.3245  -215.6935    89.4768 C1            1 RES     
    4136 C1         206.8786  -215.4286    88.2317 C1            1 RES     
    4137 H5         206.1433  -212.1817    87.9204 H5            1 RES     
    4138 C0         201.2609  -210.4479    92.5345 C0            1 RES     
    4139 C0         200.3546  -211.6994    92.2604 C0            1 RES     
    4140 C0         199.1423  -211.2731    91.3538 C0            1 RES     
    4141 C0         197.9462  -210.4818    91.9615 C0            1 RES     
    4142 C0         198.1751  -209.0441    92.4722 C0            1 RES     
    4143 C0         198.7784  -208.0620    91.4496 C0            1 RES     
    4144 C0         197.8829  -207.8383    90.2238 C0            1 RES     
    4145 C0         198.5052  -206.8150    89.2763 C0            1 RES     
    4146 C0         199.7786  -212.4458    93.4976 C0            1 RES     
    4147 C0         200.6920  -213.5011    94.1145 C0            1 RES     
    4148 C0         200.0637  -214.0779    95.3965 C0            1 RES     
    4149 C0         200.9827  -215.1033    96.0788 C0            1 RES     
    4150 C0         200.4391  -215.4804    97.4679 C0            1 RES     
    4151 C0         201.4026  -216.3504    98.2962 C0            1 RES     
    4152 C0         202.6889  -215.5973    98.6906 C0            1 RES     
    4153 C0         203.5741  -216.4356    99.6074 C0            1 RES     
    4154 H6         200.7229  -209.7779    93.2198 H6            1 RES     
    4155 H6         201.2962  -209.9565    91.5372 H6            1 RES     
    4156 H6         200.9292  -212.4076    91.6227 H6            1 RES     
    4157 H6         198.6914  -212.2205    90.9815 H6            1 RES     
    4158 H6         199.5092  -210.7495    90.4450 H6            1 RES     
    4159 H6         197.4997  -211.0700    92.7907 H6            1 RES     
    4160 H6         197.1676  -210.4286    91.1711 H6            1 RES     
    4161 H6         198.7988  -209.0619    93.3811 H6            1 RES     
    4162 H6         197.1950  -208.6393    92.8067 H6            1 RES     
    4163 H6         199.7742  -208.4103    91.1189 H6            1 RES     
    4164 H6         198.9188  -207.0862    91.9643 H6            1 RES     
    4165 H6         197.7455  -208.7890    89.6681 H6            1 RES     
    4166 H6         196.8893  -207.4645    90.5534 H6            1 RES     
    4167 H6         198.6412  -205.8409    89.7930 H6            1 RES     
    4168 H6         197.8385  -206.6628    88.4015 H6            1 RES     
    4169 H6         199.4916  -207.1755    88.9136 H6            1 RES     
    4170 H6         198.8820  -213.0298    93.1897 H6            1 RES     
    4171 H6         199.4475  -211.6921    94.2458 H6            1 RES     
    4172 H6         200.8882  -214.3104    93.3778 H6            1 RES     
    4173 H6         201.6345  -213.0345    94.3666 H6            1 RES     
    4174 H6         199.9014  -213.2277    96.0964 H6            1 RES     
    4175 H6         199.0799  -214.5477    95.1783 H6            1 RES     
    4176 H6         201.1005  -216.0087    95.4451 H6            1 RES     
    4177 H6         201.9764  -214.6526    96.1913 H6            1 RES     
    4178 H6         200.2283  -214.5596    98.0560 H6            1 RES     
    4179 H6         199.4790  -216.0253    97.3319 H6            1 RES     
    4180 H6         201.6512  -217.2805    97.7418 H6            1 RES     
    4181 H6         200.8723  -216.6321    99.2321 H6            1 RES     
    4182 H6         202.4209  -214.6594    99.2260 H6            1 RES     
    4183 H6         203.2838  -215.3413    97.7941 H6            1 RES     
    4184 H6         204.4824  -215.8572    99.8729 H6            1 RES     
    4185 H6         203.0306  -216.6919   100.5420 H6            1 RES     
    4186 H6         203.8840  -217.3715    99.0931 H6            1 RES     
    4187 C0         203.0539  -210.7315    94.4987 C0            1 RES     
    4188 C0         203.9202  -211.9268    95.0181 C0            1 RES     
    4189 C0         203.4413  -212.3666    96.4454 C0            1 RES     
    4190 C0         203.7629  -211.5165    97.6994 C0            1 RES     
    4191 C0         203.0477  -210.1592    97.8572 C0            1 RES     
    4192 C0         201.5057  -210.2038    97.8111 C0            1 RES     
    4193 C0         200.8751  -211.0937    98.8901 C0            1 RES     
    4194 C0         199.3508  -211.0400    98.8077 C0            1 RES     
    4195 C0         205.4623  -211.7220    95.0815 C0            1 RES     
    4196 C0         206.1545  -211.6116    93.7334 C0            1 RES     
    4197 C0         207.6788  -211.5981    93.8559 C0            1 RES     
    4198 C0         208.3036  -211.5368    92.4574 C0            1 RES     
    4199 C0         209.8355  -211.5273    92.5266 C0            1 RES     
    4200 C0         210.4945  -211.5323    91.1367 C0            1 RES     
    4201 C0         210.1691  -210.2793    90.3081 C0            1 RES     
    4202 C0         210.9005  -210.3015    88.9702 C0            1 RES     
    4203 H6         203.4235  -209.8332    95.0230 H6            1 RES     
    4204 H6         202.0362  -210.8694    94.8964 H6            1 RES     
    4205 H6         203.7245  -212.7983    94.3633 H6            1 RES     
    4206 H6         203.9285  -213.3478    96.6348 H6            1 RES     
    4207 H6         202.3526  -212.5436    96.4438 H6            1 RES     
    4208 H6         204.8582  -211.3628    97.7793 H6            1 RES     
    4209 H6         203.4785  -212.1328    98.5793 H6            1 RES     
    4210 H6         203.4109  -209.4495    97.0948 H6            1 RES     
    4211 H6         203.3527  -209.7341    98.8380 H6            1 RES     
    4212 H6         201.1536  -210.5486    96.8231 H6            1 RES     
    4213 H6         201.1385  -209.1628    97.9482 H6            1 RES     
    4214 H6         201.1911  -212.1488    98.7506 H6            1 RES     
    4215 H6         201.1967  -210.7483    99.8962 H6            1 RES     
    4216 H6         198.9917  -210.0000    98.9634 H6            1 RES     
    4217 H6         198.9092  -211.6901    99.5914 H6            1 RES     
    4218 H6         199.0046  -211.3972    97.8137 H6            1 RES     
    4219 H6         205.8951  -212.6220    95.5729 H6            1 RES     
    4220 H6         205.7120  -210.8335    95.7010 H6            1 RES     
    4221 H6         205.8816  -212.5018    93.1324 H6            1 RES     
    4222 H6         205.8405  -210.6726    93.2490 H6            1 RES     
    4223 H6         207.9987  -210.7182    94.4549 H6            1 RES     
    4224 H6         208.0195  -212.5267    94.3670 H6            1 RES     
    4225 H6         207.9733  -212.4218    91.8687 H6            1 RES     
    4226 H6         207.9404  -210.6155    91.9568 H6            1 RES     
    4227 H6         210.1807  -210.6393    93.0997 H6            1 RES     
    4228 H6         210.1718  -212.4412    93.0642 H6            1 RES     
    4229 H6         210.1783  -212.4425    90.5806 H6            1 RES     
    4230 H6         211.5953  -211.5825    91.2868 H6            1 RES     
    4231 H6         210.4760  -209.3711    90.8707 H6            1 RES     
    4232 H6         209.0808  -210.2234    90.0985 H6            1 RES     
    4233 H6         210.6475  -209.3864    88.3942 H6            1 RES     
    4234 H6         211.9991  -210.3285    89.1314 H6            1 RES     
    4235 H6         210.5945  -211.1907    88.3787 H6            1 RES     
    4236 C0         207.9651  -220.0987    85.7364 C0            1 RES     
    4237 C1         208.0334  -218.6863    86.3314 C1            1 RES     
    4238 C1         209.1926  -218.0507    86.0509 C1            1 RES     
    4239 S2         209.2404  -216.5041    86.6842 S2            1 RES     
    4240 C1         207.6774  -216.6452    87.3532 C1            1 RES     
    4241 C1         207.1400  -217.9055    87.0674 C1            1 RES     
    4242 C1         210.0036  -218.9268    85.2857 C1            1 RES     
    4243 C1         209.3636  -220.1195    85.1074 C1            1 RES     
    4244 C1         210.1333  -221.0410    84.3902 C1            1 RES     
    4245 C1         211.3956  -220.4976    84.0388 C1            1 RES     
    4246 S2         211.5079  -218.8849    84.5877 S2            1 RES     
    4247 H3         206.1579  -218.2341    87.3774 H3            1 RES     
    4248 H3         209.7918  -222.0386    84.1583 H3            1 RES     
    4249 N4         214.5992  -220.9921    82.1127 N4            1 RES     
    4250 C1         213.5359  -220.4024    82.7300 C1            1 RES     
    4251 C1         212.5261  -221.1753    83.3490 C1            1 RES     
    4252 C1         212.6785  -222.5732    83.3159 C1            1 RES     
    4253 N4         211.8297  -223.4559    83.9005 N4            1 RES     
    4254 S2         212.5415  -224.9116    83.5744 S2            1 RES     
    4255 N4         213.8953  -224.5049    82.7204 N4            1 RES     
    4256 C1         213.8112  -223.1534    82.6776 C1            1 RES     
    4257 C1         214.7609  -222.3415    82.0723 C1            1 RES     
    4258 H5         213.4789  -219.3225    82.7220 H5            1 RES     
    4259 C0         206.8424  -219.9745    84.6364 C0            1 RES     
    4260 C0         206.4644  -220.9872    83.4986 C0            1 RES     
    4261 C0         205.6889  -220.2248    82.3626 C0            1 RES     
    4262 C0         204.1979  -219.8214    82.5628 C0            1 RES     
    4263 C0         203.8393  -218.7651    83.6288 C0            1 RES     
    4264 C0         204.5671  -217.4133    83.4983 C0            1 RES     
    4265 C0         204.2520  -216.6800    82.1878 C0            1 RES     
    4266 C0         204.9547  -215.3250    82.1414 C0            1 RES     
    4267 C0         205.6134  -222.2253    83.9015 C0            1 RES     
    4268 C0         206.4003  -223.4244    84.4227 C0            1 RES     
    4269 C0         205.4442  -224.5327    84.9006 C0            1 RES     
    4270 C0         206.2012  -225.7345    85.4873 C0            1 RES     
    4271 C0         205.2261  -226.7113    86.1674 C0            1 RES     
    4272 C0         205.9230  -227.8396    86.9502 C0            1 RES     
    4273 C0         206.7003  -227.3171    88.1749 C0            1 RES     
    4274 C0         207.2837  -228.4589    89.0012 C0            1 RES     
    4275 H6         205.9222  -219.6993    85.1707 H6            1 RES     
    4276 H6         207.1798  -219.0846    84.0607 H6            1 RES     
    4277 H6         207.4055  -221.3172    83.0048 H6            1 RES     
    4278 H6         205.6782  -220.9115    81.4864 H6            1 RES     
    4279 H6         206.2708  -219.3386    82.0299 H6            1 RES     
    4280 H6         203.5955  -220.7309    82.7696 H6            1 RES     
    4281 H6         203.8405  -219.4343    81.5850 H6            1 RES     
    4282 H6         204.0025  -219.1778    84.6380 H6            1 RES     
    4283 H6         202.7448  -218.5779    83.5708 H6            1 RES     
    4284 H6         205.6602  -217.5516    83.5887 H6            1 RES     
    4285 H6         204.2393  -216.7728    84.3464 H6            1 RES     
    4286 H6         204.5939  -217.2795    81.3188 H6            1 RES     
    4287 H6         203.1551  -216.5184    82.1075 H6            1 RES     
    4288 H6         204.6226  -214.6870    82.9882 H6            1 RES     
    4289 H6         204.7074  -214.8089    81.1899 H6            1 RES     
    4290 H6         206.0561  -215.4598    82.1975 H6            1 RES     
    4291 H6         205.0996  -222.6272    82.9992 H6            1 RES     
    4292 H6         204.8274  -221.8991    84.6179 H6            1 RES     
    4293 H6         207.0768  -223.8083    83.6283 H6            1 RES     
    4294 H6         207.0058  -223.1008    85.2583 H6            1 RES     
    4295 H6         204.8031  -224.0948    85.6984 H6            1 RES     
    4296 H6         204.7890  -224.8753    84.0703 H6            1 RES     
    4297 H6         206.7883  -226.2525    84.6986 H6            1 RES     
    4298 H6         206.9144  -225.3608    86.2322 H6            1 RES     
    4299 H6         204.5734  -226.1610    86.8811 H6            1 RES     
    4300 H6         204.5746  -227.1576    85.3841 H6            1 RES     
    4301 H6         206.5966  -228.4125    86.2776 H6            1 RES     
    4302 H6         205.1293  -228.5261    87.3180 H6            1 RES     
    4303 H6         206.0159  -226.7291    88.8260 H6            1 RES     
    4304 H6         207.5398  -226.6699    87.8595 H6            1 RES     
    4305 H6         207.8270  -228.0425    89.8738 H6            1 RES     
    4306 H6         206.4730  -229.1225    89.3714 H6            1 RES     
    4307 H6         207.9952  -229.0537    88.3877 H6            1 RES     
    4308 C0         207.6423  -221.0747    86.9393 C0            1 RES     
    4309 C0         208.4627  -222.3555    87.3071 C0            1 RES     
    4310 C0         207.5430  -223.4040    88.0245 C0            1 RES     
    4311 C0         207.0895  -223.2058    89.4920 C0            1 RES     
    4312 C0         206.0750  -222.0833    89.7912 C0            1 RES     
    4313 C0         204.7581  -222.1374    88.9884 C0            1 RES     
    4314 C0         203.9606  -223.4332    89.1854 C0            1 RES     
    4315 C0         202.6511  -223.3829    88.4006 C0            1 RES     
    4316 C0         209.7345  -222.1664    88.1853 C0            1 RES     
    4317 C0         210.8852  -221.4426    87.5068 C0            1 RES     
    4318 C0         212.1617  -221.4511    88.3489 C0            1 RES     
    4319 C0         213.2868  -220.7498    87.5793 C0            1 RES     
    4320 C0         214.5935  -220.7377    88.3817 C0            1 RES     
    4321 C0         215.7606  -220.0986    87.6099 C0            1 RES     
    4322 C0         215.5302  -218.6141    87.2846 C0            1 RES     
    4323 C0         216.7425  -218.0122    86.5821 C0            1 RES     
    4324 H6         207.5291  -220.5024    87.8764 H6            1 RES     
    4325 H6         206.6172  -221.4008    86.7035 H6            1 RES     
    4326 H6         208.7770  -222.8410    86.3625 H6            1 RES     
    4327 H6         208.1214  -224.3534    88.0317 H6            1 RES     
    4328 H6         206.6346  -223.5860    87.4258 H6            1 RES     
    4329 H6         207.9760  -223.0799    90.1463 H6            1 RES     
    4330 H6         206.6139  -224.1597    89.8065 H6            1 RES     
    4331 H6         206.5473  -221.0974    89.6432 H6            1 RES     
    4332 H6         205.8241  -222.1408    90.8727 H6            1 RES     
    4333 H6         204.9519  -222.0061    87.9095 H6            1 RES     
    4334 H6         204.1316  -221.2796    89.3187 H6            1 RES     
    4335 H6         204.5467  -224.3036    88.8229 H6            1 RES     
    4336 H6         203.7323  -223.5728    90.2640 H6            1 RES     
    4337 H6         202.0241  -222.5342    88.7490 H6            1 RES     
    4338 H6         202.0870  -224.3269    88.5502 H6            1 RES     
    4339 H6         202.8556  -223.2598    87.3149 H6            1 RES     
    4340 H6         210.1178  -223.1813    88.4343 H6            1 RES     
    4341 H6         209.4784  -221.6487    89.1350 H6            1 RES     
    4342 H6         211.1136  -221.9707    86.5597 H6            1 RES     
    4343 H6         210.5934  -220.3934    87.3361 H6            1 RES     
    4344 H6         211.9778  -220.9302    89.3134 H6            1 RES     
    4345 H6         212.4632  -222.5024    88.5576 H6            1 RES     
    4346 H6         213.4585  -221.2802    86.6159 H6            1 RES     
    4347 H6         212.9630  -219.7103    87.3651 H6            1 RES     
    4348 H6         214.4407  -220.1972    89.3412 H6            1 RES     
    4349 H6         214.8763  -221.7879    88.6147 H6            1 RES     
    4350 H6         215.9367  -220.6659    86.6692 H6            1 RES     
    4351 H6         216.6704  -220.1860    88.2433 H6            1 RES     
    4352 H6         215.3436  -218.0517    88.2251 H6            1 RES     
    4353 H6         214.6551  -218.4943    86.6128 H6            1 RES     
    4354 H6         216.5485  -216.9416    86.3600 H6            1 RES     
    4355 H6         217.6403  -218.0841    87.2321 H6            1 RES     
    4356 H6         216.9377  -218.5446    85.6268 H6            1 RES     
    4357 C0         217.8795  -225.3524    78.8434 C0            1 RES     
    4358 C1         217.3509  -224.3605    79.8876 C1            1 RES     
    4359 C1         218.3317  -223.6405    80.4759 C1            1 RES     
    4360 S2         217.7369  -222.5467    81.5919 S2            1 RES     
    4361 C1         216.1209  -223.0108    81.3026 C1            1 RES     
    4362 C1         216.0724  -224.0176    80.3316 C1            1 RES     
    4363 C1         219.5733  -224.0571    79.9322 C1            1 RES     
    4364 C1         219.3733  -225.0545    79.0217 C1            1 RES     
    4365 C1         220.5693  -225.5343    78.4780 C1            1 RES     
    4366 C1         221.6921  -224.8620    79.0254 C1            1 RES     
    4367 S2         221.1738  -223.6698    80.1320 S2            1 RES     
    4368 H3         215.1607  -224.4731    79.9708 H3            1 RES     
    4369 H3         220.6066  -226.3267    77.7457 H3            1 RES     
    4370 N4         225.4262  -224.3588    78.8810 N4            1 RES     
    4371 C1         224.0950  -224.1365    79.0757 C1            1 RES     
    4372 C1         223.1337  -225.1285    78.7726 C1            1 RES     
    4373 C1         223.6131  -226.3565    78.2819 C1            1 RES     
    4374 N4         222.8332  -227.4273    77.9878 N4            1 RES     
    4375 S2         223.9395  -228.5615    77.5170 S2            1 RES     
    4376 N4         225.3882  -227.7818    77.6618 N4            1 RES     
    4377 C1         225.0116  -226.5593    78.1082 C1            1 RES     
    4378 C1         225.9053  -225.5401    78.4079 C1            1 RES     
    4379 H5         223.7919  -223.1713    79.4579 H5            1 RES     
    4380 C0         217.3361  -224.7699    77.4828 C0            1 RES     
    4381 C0         217.7297  -225.1669    76.0163 C0            1 RES     
    4382 C0         217.3532  -223.9911    75.0421 C0            1 RES     
    4383 C0         215.8697  -223.7560    74.6300 C0            1 RES     
    4384 C0         214.8529  -223.3044    75.6989 C0            1 RES     
    4385 C0         215.2228  -222.0235    76.4712 C0            1 RES     
    4386 C0         215.3296  -220.7843    75.5727 C0            1 RES     
    4387 C0         215.6411  -219.5390    76.4000 C0            1 RES     
    4388 C0         217.1095  -226.4725    75.4416 C0            1 RES     
    4389 C0         217.8606  -227.7592    75.7707 C0            1 RES     
    4390 C0         217.0858  -228.9854    75.2538 C0            1 RES     
    4391 C0         217.7838  -230.3050    75.6188 C0            1 RES     
    4392 C0         216.8753  -231.5057    75.3019 C0            1 RES     
    4393 C0         217.4200  -232.8498    75.8198 C0            1 RES     
    4394 C0         217.4550  -232.9200    77.3596 C0            1 RES     
    4395 C0         217.8852  -234.2984    77.8512 C0            1 RES     
    4396 H6         216.2400  -224.7870    77.5606 H6            1 RES     
    4397 H6         217.6639  -223.7084    77.5381 H6            1 RES     
    4398 H6         218.8399  -225.2164    75.9592 H6            1 RES     
    4399 H6         217.8792  -224.2074    74.0850 H6            1 RES     
    4400 H6         217.7923  -223.0372    75.4055 H6            1 RES     
    4401 H6         215.4719  -224.6743    74.1489 H6            1 RES     
    4402 H6         215.8807  -222.9769    73.8385 H6            1 RES     
    4403 H6         214.6651  -224.1251    76.4108 H6            1 RES     
    4404 H6         213.8768  -223.1362    75.1935 H6            1 RES     
    4405 H6         216.1723  -222.1627    77.0201 H6            1 RES     
    4406 H6         214.4241  -221.8434    77.2239 H6            1 RES     
    4407 H6         216.1397  -220.9180    74.8262 H6            1 RES     
    4408 H6         214.3670  -220.6289    75.0388 H6            1 RES     
    4409 H6         214.8399  -219.3607    77.1487 H6            1 RES     
    4410 H6         215.7064  -218.6542    75.7323 H6            1 RES     
    4411 H6         216.6116  -219.6595    76.9273 H6            1 RES     
    4412 H6         217.1392  -226.4345    74.3292 H6            1 RES     
    4413 H6         216.0410  -226.5235    75.7472 H6            1 RES     
    4414 H6         218.8802  -227.7269    75.3285 H6            1 RES     
    4415 H6         217.9579  -227.8348    76.8452 H6            1 RES     
    4416 H6         216.0830  -228.9704    75.7368 H6            1 RES     
    4417 H6         216.9474  -228.9304    74.1520 H6            1 RES     
    4418 H6         218.7547  -230.3968    75.0859 H6            1 RES     
    4419 H6         218.0018  -230.2924    76.6937 H6            1 RES     
    4420 H6         215.8713  -231.3527    75.7566 H6            1 RES     
    4421 H6         216.7447  -231.5643    74.1989 H6            1 RES     
    4422 H6         218.4302  -233.0411    75.3989 H6            1 RES     
    4423 H6         216.7336  -233.6463    75.4580 H6            1 RES     
    4424 H6         216.4409  -232.7057    77.7643 H6            1 RES     
    4425 H6         218.1685  -232.1812    77.7696 H6            1 RES     
    4426 H6         217.8905  -234.3093    78.9603 H6            1 RES     
    4427 H6         217.1776  -235.0760    77.4919 H6            1 RES     
    4428 H6         218.9087  -234.5351    77.4867 H6            1 RES     
    4429 C0         217.3188  -226.7739    79.2539 C0            1 RES     
    4430 C0         218.1839  -228.0635    79.4476 C0            1 RES     
    4431 C0         217.3249  -229.3438    79.1592 C0            1 RES     
    4432 C0         216.2586  -229.8410    80.1662 C0            1 RES     
    4433 C0         214.9785  -228.9986    80.3405 C0            1 RES     
    4434 C0         214.1816  -228.7139    79.0499 C0            1 RES     
    4435 C0         213.7092  -229.9765    78.3174 C0            1 RES     
    4436 C0         212.8865  -229.6066    77.0848 C0            1 RES     
    4437 C0         218.8771  -228.2630    80.8274 C0            1 RES     
    4438 C0         219.9985  -227.2845    81.1334 C0            1 RES     
    4439 C0         220.7582  -227.6438    82.4111 C0            1 RES     
    4440 C0         221.9012  -226.6448    82.6245 C0            1 RES     
    4441 C0         222.6992  -226.9669    83.8937 C0            1 RES     
    4442 C0         223.8946  -226.0214    84.1017 C0            1 RES     
    4443 C0         223.4786  -224.5560    84.3067 C0            1 RES     
    4444 C0         224.6929  -223.6740    84.5768 C0            1 RES     
    4445 H6         216.6861  -226.6900    80.1545 H6            1 RES     
    4446 H6         216.6008  -226.9814    78.4450 H6            1 RES     
    4447 H6         218.9748  -228.0621    78.6723 H6            1 RES     
    4448 H6         218.0529  -230.1803    79.0801 H6            1 RES     
    4449 H6         216.8288  -229.2560    78.1780 H6            1 RES     
    4450 H6         216.7254  -230.0043    81.1589 H6            1 RES     
    4451 H6         215.9363  -230.8446    79.8142 H6            1 RES     
    4452 H6         215.2196  -228.0418    80.8339 H6            1 RES     
    4453 H6         214.3138  -229.5446    81.0446 H6            1 RES     
    4454 H6         214.7778  -228.1045    78.3484 H6            1 RES     
    4455 H6         213.2902  -228.1126    79.3350 H6            1 RES     
    4456 H6         214.5821  -230.5753    77.9825 H6            1 RES     
    4457 H6         213.0851  -230.5939    78.9987 H6            1 RES     
    4458 H6         211.9891  -229.0218    77.3804 H6            1 RES     
    4459 H6         212.5546  -230.5289    76.5642 H6            1 RES     
    4460 H6         213.4967  -229.0013    76.3800 H6            1 RES     
    4461 H6         219.3475  -229.2717    80.8179 H6            1 RES     
    4462 H6         218.1272  -228.2367    81.6474 H6            1 RES     
    4463 H6         220.7256  -227.3219    80.2980 H6            1 RES     
    4464 H6         219.5666  -226.2785    81.2620 H6            1 RES     
    4465 H6         220.0642  -227.6196    83.2790 H6            1 RES     
    4466 H6         221.1828  -228.6686    82.3162 H6            1 RES     
    4467 H6         222.5863  -226.6781    81.7478 H6            1 RES     
    4468 H6         221.4621  -225.6285    82.6997 H6            1 RES     
    4469 H6         222.0299  -226.9224    84.7803 H6            1 RES     
    4470 H6         223.0970  -228.0023    83.8091 H6            1 RES     
    4471 H6         224.5826  -226.0979    83.2309 H6            1 RES     
    4472 H6         224.4414  -226.3651    85.0071 H6            1 RES     
    4473 H6         222.7826  -224.4841    85.1704 H6            1 RES     
    4474 H6         222.9708  -224.1654    83.4006 H6            1 RES     
    4475 H6         224.3632  -222.6234    84.7209 H6            1 RES     
    4476 H6         225.2184  -224.0116    85.4953 H6            1 RES     
    4477 H6         225.3955  -223.7122    83.7171 H6            1 RES     
    4478 C0         230.7164  -226.6933    76.2306 C0            1 RES     
    4479 C1         229.5755  -226.2932    77.1749 C1            1 RES     
    4480 C1         230.0114  -225.8949    78.3906 C1            1 RES     
    4481 S2         228.7581  -225.4379    79.3983 S2            1 RES     
    4482 C1         227.5794  -225.7577    78.2072 C1            1 RES     
    4483 C1         228.1885  -226.2174    77.0340 C1            1 RES     
    4484 C1         231.4260  -225.9921    78.4070 C1            1 RES     
    4485 C1         231.8749  -226.4743    77.2112 C1            1 RES     
    4486 C1         233.2647  -226.6289    77.1812 C1            1 RES     
    4487 C1         233.8535  -226.2514    78.4153 C1            1 RES     
    4488 S2         232.6475  -225.7006    79.4909 S2            1 RES     
    4489 H3         227.6535  -226.4812    76.1323 H3            1 RES     
    4490 H3         233.7965  -227.0035    76.3195 H3            1 RES     
    4491 N4         237.0574  -225.6522    80.3108 N4            1 RES     
    4492 C1         235.7589  -225.5723    79.9022 C1            1 RES     
    4493 C1         235.2836  -226.3418    78.8149 C1            1 RES     
    4494 C1         236.2026  -227.2039    78.1899 C1            1 RES     
    4495 N4         235.9006  -228.0434    77.1674 N4            1 RES     
    4496 S2         237.3366  -228.8166    76.8988 S2            1 RES     
    4497 N4         238.3554  -228.1538    78.0169 N4            1 RES     
    4498 C1         237.5464  -227.2742    78.6551 C1            1 RES     
    4499 C1         237.9577  -226.4806    79.7174 C1            1 RES     
    4500 H5         235.1025  -224.8915    80.4267 H5            1 RES     
    4501 C0         230.6809  -225.5711    75.1237 C0            1 RES     
    4502 C0         231.7417  -225.2530    74.0117 C0            1 RES     
    4503 C0         231.5469  -223.7727    73.5177 C0            1 RES     
    4504 C0         230.3700  -223.4105    72.5640 C0            1 RES     
    4505 C0         228.9204  -223.5145    73.0822 C0            1 RES     
    4506 C0         228.6112  -222.7132    74.3615 C0            1 RES     
    4507 C0         228.7915  -221.1995    74.1861 C0            1 RES     
    4508 C0         228.4164  -220.4562    75.4663 C0            1 RES     
    4509 C0         231.7541  -226.1713    72.7563 C0            1 RES     
    4510 C0         232.5765  -227.4503    72.8837 C0            1 RES     
    4511 C0         232.4105  -228.3276    71.6291 C0            1 RES     
    4512 C0         233.1790  -229.6532    71.7461 C0            1 RES     
    4513 C0         232.8052  -230.6013    70.5933 C0            1 RES     
    4514 C0         233.3807  -232.0215    70.7463 C0            1 RES     
    4515 C0         232.7742  -232.7796    71.9441 C0            1 RES     
    4516 C0         233.2690  -234.2211    72.0076 C0            1 RES     
    4517 H6         229.6943  -225.6466    74.6454 H6            1 RES     
    4518 H6         230.6914  -224.6422    75.7355 H6            1 RES     
    4519 H6         232.7476  -225.2459    74.4874 H6            1 RES     
    4520 H6         232.4642  -223.5207    72.9392 H6            1 RES     
    4521 H6         231.5495  -223.0764    74.3837 H6            1 RES     
    4522 H6         230.4449  -224.0208    71.6394 H6            1 RES     
    4523 H6         230.5303  -222.3577    72.2487 H6            1 RES     
    4524 H6         228.6492  -224.5724    73.2331 H6            1 RES     
    4525 H6         228.2422  -223.1583    72.2763 H6            1 RES     
    4526 H6         229.2408  -223.0638    75.1998 H6            1 RES     
    4527 H6         227.5511  -222.9112    74.6331 H6            1 RES     
    4528 H6         229.8479  -220.9627    73.9428 H6            1 RES     
    4529 H6         228.1402  -220.8415    73.3594 H6            1 RES     
    4530 H6         227.3562  -220.6540    75.7329 H6            1 RES     
    4531 H6         228.5466  -219.3639    75.3153 H6            1 RES     
    4532 H6         229.0691  -220.7799    76.3053 H6            1 RES     
    4533 H6         232.2433  -225.6338    71.9129 H6            1 RES     
    4534 H6         230.7031  -226.3794    72.4571 H6            1 RES     
    4535 H6         233.6473  -227.1983    73.0448 H6            1 RES     
    4536 H6         232.2233  -228.0013    73.7446 H6            1 RES     
    4537 H6         231.3258  -228.5555    71.5264 H6            1 RES     
    4538 H6         232.7443  -227.7835    70.7188 H6            1 RES     
    4539 H6         234.2752  -229.4720    71.7646 H6            1 RES     
    4540 H6         232.9100  -230.1231    72.7001 H6            1 RES     
    4541 H6         231.6986  -230.6934    70.5209 H6            1 RES     
    4542 H6         233.1733  -230.1577    69.6420 H6            1 RES     
    4543 H6         234.4874  -231.9786    70.8334 H6            1 RES     
    4544 H6         233.1239  -232.5837    69.8220 H6            1 RES     
    4545 H6         231.6655  -232.7947    71.8512 H6            1 RES     
    4546 H6         233.0478  -232.2899    72.8972 H6            1 RES     
    4547 H6         232.8053  -234.7322    72.8759 H6            1 RES     
    4548 H6         232.9881  -234.7680    71.0822 H6            1 RES     
    4549 H6         234.3741  -234.2439    72.1279 H6            1 RES     
    4550 C0         230.3902  -228.1592    75.7322 C0            1 RES     
    4551 C0         231.3702  -229.3769    75.8076 C0            1 RES     
    4552 C0         231.0465  -230.4076    74.6706 C0            1 RES     
    4553 C0         229.8056  -231.3307    74.7506 C0            1 RES     
    4554 C0         228.4130  -230.6876    74.5898 C0            1 RES     
    4555 C0         228.1970  -229.8683    73.2999 C0            1 RES     
    4556 C0         228.3954  -230.6737    72.0092 C0            1 RES     
    4557 C0         228.1120  -229.8053    70.7850 C0            1 RES     
    4558 C0         231.4375  -230.1629    77.1500 C0            1 RES     
    4559 C0         232.0546  -229.4032    78.3122 C0            1 RES     
    4560 C0         232.2613  -230.2840    79.5451 C0            1 RES     
    4561 C0         232.9318  -229.4636    80.6530 C0            1 RES     
    4562 C0         233.1668  -230.3066    81.9123 C0            1 RES     
    4563 C0         233.8980  -229.5304    83.0208 C0            1 RES     
    4564 C0         233.0992  -228.3260    83.5441 C0            1 RES     
    4565 C0         233.8358  -227.6340    84.6861 C0            1 RES     
    4566 H6         229.4351  -228.5061    76.1635 H6            1 RES     
    4567 H6         230.1556  -227.9949    74.6689 H6            1 RES     
    4568 H6         232.3900  -229.0070    75.5845 H6            1 RES     
    4569 H6         231.9149  -231.1012    74.6400 H6            1 RES     
    4570 H6         231.0088  -229.8970    73.6936 H6            1 RES     
    4571 H6         229.8307  -231.9145    75.6931 H6            1 RES     
    4572 H6         229.9120  -232.0737    73.9311 H6            1 RES     
    4573 H6         228.1868  -230.0521    75.4627 H6            1 RES     
    4574 H6         227.6631  -231.5080    74.6086 H6            1 RES     
    4575 H6         228.8709  -228.9942    73.2742 H6            1 RES     
    4576 H6         227.1544  -229.4815    73.3220 H6            1 RES     
    4577 H6         229.4425  -231.0362    71.9399 H6            1 RES     
    4578 H6         227.7077  -231.5465    72.0023 H6            1 RES     
    4579 H6         227.0635  -229.4379    70.8060 H6            1 RES     
    4580 H6         228.2623  -230.3998    69.8598 H6            1 RES     
    4581 H6         228.8005  -228.9329    70.7620 H6            1 RES     
    4582 H6         232.0922  -231.0472    76.9825 H6            1 RES     
    4583 H6         230.4279  -230.5273    77.4389 H6            1 RES     
    4584 H6         233.0535  -229.0422    77.9958 H6            1 RES     
    4585 H6         231.3836  -228.5743    78.5908 H6            1 RES     
    4586 H6         231.2808  -230.6707    79.8979 H6            1 RES     
    4587 H6         232.9162  -231.1452    79.2821 H6            1 RES     
    4588 H6         233.9105  -229.0813    80.2855 H6            1 RES     
    4589 H6         232.2748  -228.6015    80.8903 H6            1 RES     
    4590 H6         232.1950  -230.6832    82.2996 H6            1 RES     
    4591 H6         233.7962  -231.1824    81.6402 H6            1 RES     
    4592 H6         234.8871  -229.1890    82.6427 H6            1 RES     
    4593 H6         234.0730  -230.2337    83.8643 H6            1 RES     
    4594 H6         232.1075  -228.6683    83.9111 H6            1 RES     
    4595 H6         232.9475  -227.5796    82.7371 H6            1 RES     
    4596 H6         233.2370  -226.7699    85.0437 H6            1 RES     
    4597 H6         233.9852  -228.3383    85.5319 H6            1 RES     
    4598 H6         234.8237  -227.2632    84.3385 H6            1 RES     
    4599 C0         243.3593  -226.4144    79.9033 C0            1 RES     
    4600 C1         241.8666  -226.5107    80.2438 C1            1 RES     
    4601 C1         241.6366  -226.6953    81.5627 C1            1 RES     
    4602 S2         240.0051  -226.7722    81.9202 S2            1 RES     
    4603 C1         239.5571  -226.5456    80.2897 C1            1 RES     
    4604 C1         240.6967  -226.4110    79.4883 C1            1 RES     
    4605 C1         242.8886  -226.7571    82.2257 C1            1 RES     
    4606 C1         243.9031  -226.6361    81.3201 C1            1 RES     
    4607 C1         245.1667  -226.7287    81.9124 C1            1 RES     
    4608 C1         245.0674  -226.9367    83.3121 C1            1 RES     
    4609 S2         243.4263  -226.9595    83.7818 S2            1 RES     
    4610 H3         240.6748  -226.2508    78.4194 H3            1 RES     
    4611 H3         246.0862  -226.6608    81.3506 H3            1 RES     
    4612 N4         246.9194  -227.1864    86.5870 N4            1 RES     
    4613 C1         245.9395  -226.9601    85.6662 C1            1 RES     
    4614 C1         246.1687  -227.1653    84.2858 C1            1 RES     
    4615 C1         247.4418  -227.6304    83.9099 C1            1 RES     
    4616 N4         247.8116  -227.9235    82.6376 N4            1 RES     
    4617 S2         249.3640  -228.4586    82.8269 S2            1 RES     
    4618 N4         249.6218  -228.3499    84.4545 N4            1 RES     
    4619 C1         248.4350  -227.8728    84.9008 C1            1 RES     
    4620 C1         248.1547  -227.6361    86.2398 C1            1 RES     
    4621 H5         244.9815  -226.6052    86.0208 H5            1 RES     
    4622 C0         243.5315  -224.9141    79.4504 C0            1 RES     
    4623 C0         244.8548  -224.1034    79.2163 C0            1 RES     
    4624 C0         244.5425  -222.5646    79.3046 C0            1 RES     
    4625 C0         243.8331  -221.8373    78.1240 C0            1 RES     
    4626 C0         242.3714  -222.1974    77.7860 C0            1 RES     
    4627 C0         241.3677  -222.0684    78.9479 C0            1 RES     
    4628 C0         241.2398  -220.6354    79.4813 C0            1 RES     
    4629 C0         240.1920  -220.5601    80.5897 C0            1 RES     
    4630 C0         245.6168  -224.3542    77.8837 C0            1 RES     
    4631 C0         246.5853  -225.5335    77.8904 C0            1 RES     
    4632 C0         247.1814  -225.7521    76.4876 C0            1 RES     
    4633 C0         248.1182  -226.9695    76.4420 C0            1 RES     
    4634 C0         248.5064  -227.3020    74.9907 C0            1 RES     
    4635 C0         249.2817  -228.6243    74.8432 C0            1 RES     
    4636 C0         248.4235  -229.8557    75.1957 C0            1 RES     
    4637 C0         249.1715  -231.1584    74.9305 C0            1 RES     
    4638 H6         242.8905  -224.7877    78.5665 H6            1 RES     
    4639 H6         243.0602  -224.3622    80.2933 H6            1 RES     
    4640 H6         245.5299  -224.2892    80.0811 H6            1 RES     
    4641 H6         245.5295  -222.0573    79.3937 H6            1 RES     
    4642 H6         244.0116  -222.3353    80.2534 H6            1 RES     
    4643 H6         244.4361  -221.9616    77.2000 H6            1 RES     
    4644 H6         243.8568  -220.7523    78.3604 H6            1 RES     
    4645 H6         242.3218  -223.2151    77.3648 H6            1 RES     
    4646 H6         242.0364  -221.5308    76.9614 H6            1 RES     
    4647 H6         241.6451  -222.7458    79.7764 H6            1 RES     
    4648 H6         240.3732  -222.3921    78.5694 H6            1 RES     
    4649 H6         242.2098  -220.2901    79.8951 H6            1 RES     
    4650 H6         240.9367  -219.9573    78.6543 H6            1 RES     
    4651 H6         239.1995  -220.8813    80.2072 H6            1 RES     
    4652 H6         240.1102  -219.5150    80.9554 H6            1 RES     
    4653 H6         240.4829  -221.2132    81.4402 H6            1 RES     
    4654 H6         246.2746  -223.4824    77.6670 H6            1 RES     
    4655 H6         244.8751  -224.4285    77.0580 H6            1 RES     
    4656 H6         247.3925  -225.3571    78.6344 H6            1 RES     
    4657 H6         246.0421  -226.4221    78.1817 H6            1 RES     
    4658 H6         246.3315  -225.9336    75.7920 H6            1 RES     
    4659 H6         247.7301  -224.8477    76.1455 H6            1 RES     
    4660 H6         249.0250  -226.7912    77.0591 H6            1 RES     
    4661 H6         247.5899  -227.8259    76.8785 H6            1 RES     
    4662 H6         247.5923  -227.3767    74.3606 H6            1 RES     
    4663 H6         249.1265  -226.4680    74.5944 H6            1 RES     
    4664 H6         250.2015  -228.6003    75.4659 H6            1 RES     
    4665 H6         249.5835  -228.7135    73.7766 H6            1 RES     
    4666 H6         247.4980  -229.8525    74.5782 H6            1 RES     
    4667 H6         248.1416  -229.8439    76.2650 H6            1 RES     
    4668 H6         248.5192  -232.0174    75.1893 H6            1 RES     
    4669 H6         249.4490  -231.2341    73.8573 H6            1 RES     
    4670 H6         250.0913  -231.2079    75.5532 H6            1 RES     
    4671 C0         243.6343  -227.5036    78.7890 C0            1 RES     
    4672 C0         244.7479  -228.6010    78.8552 C0            1 RES     
    4673 C0         245.1929  -229.0132    77.4088 C0            1 RES     
    4674 C0         244.2941  -229.9008    76.5127 C0            1 RES     
    4675 C0         242.9929  -229.2864    75.9576 C0            1 RES     
    4676 C0         243.1572  -227.9776    75.1565 C0            1 RES     
    4677 C0         244.0699  -228.1075    73.9302 C0            1 RES     
    4678 C0         244.1357  -226.7861    73.1668 C0            1 RES     
    4679 C0         244.4236  -229.9072    79.6379 C0            1 RES     
    4680 C0         244.2888  -229.7414    81.1422 C0            1 RES     
    4681 C0         244.1553  -231.0795    81.8704 C0            1 RES     
    4682 C0         244.0757  -230.8337    83.3815 C0            1 RES     
    4683 C0         243.9467  -232.1494    84.1585 C0            1 RES     
    4684 C0         243.9304  -231.9419    85.6826 C0            1 RES     
    4685 C0         242.7242  -231.1229    86.1690 C0            1 RES     
    4686 C0         242.7183  -231.0055    87.6894 C0            1 RES     
    4687 H6         242.6992  -228.0296    78.5294 H6            1 RES     
    4688 H6         243.8418  -226.8815    77.9042 H6            1 RES     
    4689 H6         245.6457  -228.1469    79.3184 H6            1 RES     
    4690 H6         246.1293  -229.5979    77.5396 H6            1 RES     
    4691 H6         245.4533  -228.1170    76.8209 H6            1 RES     
    4692 H6         244.0547  -230.8469    77.0393 H6            1 RES     
    4693 H6         244.9116  -230.1902    75.6353 H6            1 RES     
    4694 H6         242.2737  -229.1197    76.7772 H6            1 RES     
    4695 H6         242.5248  -230.0436    75.2917 H6            1 RES     
    4696 H6         243.5490  -227.1711    75.8008 H6            1 RES     
    4697 H6         242.1449  -227.6665    74.8162 H6            1 RES     
    4698 H6         245.1002  -228.3755    74.2450 H6            1 RES     
    4699 H6         243.6794  -228.8983    73.2541 H6            1 RES     
    4700 H6         243.1234  -226.4920    72.8153 H6            1 RES     
    4701 H6         244.8010  -226.8943    72.2851 H6            1 RES     
    4702 H6         244.5395  -225.9822    73.8197 H6            1 RES     
    4703 H6         245.2769  -230.6051    79.4840 H6            1 RES     
    4704 H6         243.5055  -230.3859    79.2334 H6            1 RES     
    4705 H6         245.2100  -229.2537    81.5187 H6            1 RES     
    4706 H6         243.3873  -229.1435    81.3541 H6            1 RES     
    4707 H6         243.2408  -231.6062    81.5216 H6            1 RES     
    4708 H6         245.0438  -231.7134    81.6505 H6            1 RES     
    4709 H6         244.9959  -230.3043    83.7161 H6            1 RES     
    4710 H6         243.1960  -230.1873    83.5804 H6            1 RES     
    4711 H6         243.0228  -232.6825    83.8449 H6            1 RES     
    4712 H6         244.8203  -232.7929    83.9136 H6            1 RES     
    4713 H6         244.8739  -231.4440    85.9982 H6            1 RES     
    4714 H6         243.8924  -232.9464    86.1582 H6            1 RES     
    4715 H6         241.7832  -231.6167    85.8429 H6            1 RES     
    4716 H6         242.7567  -230.0959    85.7499 H6            1 RES     
    4717 H6         241.8380  -230.4104    88.0119 H6            1 RES     
    4718 H6         242.6572  -232.0125    88.1540 H6            1 RES     
    4719 H6         243.6409  -230.4952    88.0398 H6            1 RES     
    4720 C0         252.7792  -227.5379    89.0365 C0            1 RES     
    4721 C1         251.3534  -227.8118    88.5409 C1            1 RES     
    4722 C1         250.6364  -228.5781    89.3926 C1            1 RES     
    4723 S2         249.0776  -228.8455    88.8504 S2            1 RES     
    4724 C1         249.3245  -227.9164    87.4411 C1            1 RES     
    4725 C1         250.6283  -227.4080    87.4182 C1            1 RES     
    4726 C1         251.4635  -228.9044    90.4973 C1            1 RES     
    4727 C1         252.7055  -228.3638    90.3266 C1            1 RES     
    4728 C1         253.5800  -228.6853    91.3697 C1            1 RES     
    4729 C1         252.9484  -229.5060    92.3392 C1            1 RES     
    4730 S2         251.3206  -229.7762    91.9013 S2            1 RES     
    4731 H3         251.0250  -226.7823    86.6308 H3            1 RES     
    4732 H3         254.6057  -228.3498    91.4021 H3            1 RES     
    4733 N4         253.2354  -231.1673    95.7118 N4            1 RES     
    4734 C1         252.7164  -230.5715    94.6005 C1            1 RES     
    4735 C1         253.5515  -230.1250    93.5501 C1            1 RES     
    4736 C1         254.9339  -230.3407    93.6948 C1            1 RES     
    4737 N4         255.8668  -230.0182    92.7636 N4            1 RES     
    4738 S2         257.2698  -230.5455    93.4604 S2            1 RES     
    4739 N4         256.7783  -231.1787    94.9042 N4            1 RES     
    4740 C1         255.4385  -230.9822    94.8614 C1            1 RES     
    4741 C1         254.5689  -231.3831    95.8667 C1            1 RES     
    4742 H5         251.6445  -230.4373    94.5499 H5            1 RES     
    4743 C0         252.7653  -225.9914    89.3431 C0            1 RES     
    4744 C0         253.8281  -225.1325    90.1150 C0            1 RES     
    4745 C0         253.1520  -223.8075    90.6255 C0            1 RES     
    4746 C0         252.8606  -222.6414    89.6349 C0            1 RES     
    4747 C0         251.8127  -222.8430    88.5206 C0            1 RES     
    4748 C0         250.4118  -223.2763    88.9939 C0            1 RES     
    4749 C0         249.7331  -222.2428    89.9024 C0            1 RES     
    4750 C0         248.3292  -222.7007    90.2915 C0            1 RES     
    4751 C0         255.1192  -224.7362    89.3435 C0            1 RES     
    4752 C0         256.2427  -225.7685    89.3650 C0            1 RES     
    4753 C0         257.4111  -225.3156    88.4701 C0            1 RES     
    4754 C0         258.5382  -226.3589    88.4205 C0            1 RES     
    4755 C0         259.5725  -225.9904    87.3426 C0            1 RES     
    4756 C0         260.6269  -227.0849    87.0941 C0            1 RES     
    4757 C0         260.0201  -228.3619    86.4791 C0            1 RES     
    4758 C0         261.0958  -229.3864    86.1325 C0            1 RES     
    4759 H6         252.5505  -225.4937    88.3870 H6            1 RES     
    4760 H6         251.8645  -225.8913    89.9878 H6            1 RES     
    4761 H6         254.0950  -225.6739    91.0499 H6            1 RES     
    4762 H6         253.8560  -223.3730    91.3706 H6            1 RES     
    4763 H6         252.2309  -224.0443    91.2001 H6            1 RES     
    4764 H6         253.8093  -222.3207    89.1553 H6            1 RES     
    4765 H6         252.5230  -221.7803    90.2500 H6            1 RES     
    4766 H6         252.1901  -223.5611    87.7740 H6            1 RES     
    4767 H6         251.7116  -221.8835    87.9679 H6            1 RES     
    4768 H6         250.4635  -224.2486    89.5176 H6            1 RES     
    4769 H6         249.7807  -223.4165    88.0890 H6            1 RES     
    4770 H6         250.3228  -222.0999    90.8315 H6            1 RES     
    4771 H6         249.6582  -221.2710    89.3677 H6            1 RES     
    4772 H6         247.7008  -222.8368    89.3854 H6            1 RES     
    4773 H6         247.8540  -221.9361    90.9414 H6            1 RES     
    4774 H6         248.3775  -223.6610    90.8484 H6            1 RES     
    4775 H6         255.5786  -223.8458    89.8292 H6            1 RES     
    4776 H6         254.8395  -224.4459    88.3066 H6            1 RES     
    4777 H6         256.5902  -225.9293    90.4088 H6            1 RES     
    4778 H6         255.8558  -226.7051    88.9870 H6            1 RES     
    4779 H6         257.0071  -225.1822    87.4414 H6            1 RES     
    4780 H6         257.8208  -224.3419    88.8169 H6            1 RES     
    4781 H6         259.0261  -226.4584    89.4140 H6            1 RES     
    4782 H6         258.0949  -227.3321    88.1760 H6            1 RES     
    4783 H6         259.0592  -225.7929    86.3753 H6            1 RES     
    4784 H6         260.0843  -225.0533    87.6546 H6            1 RES     
    4785 H6         261.1603  -227.3241    88.0389 H6            1 RES     
    4786 H6         261.3645  -226.6753    86.3699 H6            1 RES     
    4787 H6         259.4729  -228.1009    85.5461 H6            1 RES     
    4788 H6         259.3170  -228.8413    87.1853 H6            1 RES     
    4789 H6         260.6203  -230.2842    85.6874 H6            1 RES     
    4790 H6         261.8118  -228.9622    85.3964 H6            1 RES     
    4791 H6         261.6468  -229.6912    87.0489 H6            1 RES     
    4792 C0         253.7514  -227.9988    87.8763 C0            1 RES     
    4793 C0         254.9571  -228.9818    88.0466 C0            1 RES     
    4794 C0         256.0578  -228.6852    86.9695 C0            1 RES     
    4795 C0         255.8640  -229.0919    85.4877 C0            1 RES     
    4796 C0         254.8169  -228.3228    84.6566 C0            1 RES     
    4797 C0         254.9894  -226.7898    84.6125 C0            1 RES     
    4798 C0         256.3383  -226.3302    84.0441 C0            1 RES     
    4799 C0         256.4058  -224.8054    83.9865 C0            1 RES     
    4800 C0         254.6518  -230.5079    87.9996 C0            1 RES     
    4801 C0         253.8560  -231.0433    89.1779 C0            1 RES     
    4802 C0         253.7483  -232.5688    89.1686 C0            1 RES     
    4803 C0         252.9788  -233.0347    90.4098 C0            1 RES     
    4804 C0         252.8489  -234.5622    90.4497 C0            1 RES     
    4805 C0         252.1383  -235.0667    91.7172 C0            1 RES     
    4806 C0         250.6833  -234.5839    91.8280 C0            1 RES     
    4807 C0         250.0048  -235.1669    93.0631 C0            1 RES     
    4808 H6         253.1697  -228.3718    87.0155 H6            1 RES     
    4809 H6         254.1604  -227.0394    87.5229 H6            1 RES     
    4810 H6         255.4368  -228.7660    89.0212 H6            1 RES     
    4811 H6         256.9594  -229.2443    87.3019 H6            1 RES     
    4812 H6         256.3220  -227.6143    86.9802 H6            1 RES     
    4813 H6         255.6562  -230.1791    85.4198 H6            1 RES     
    4814 H6         256.8448  -228.9391    84.9881 H6            1 RES     
    4815 H6         253.8009  -228.5612    85.0142 H6            1 RES     
    4816 H6         254.8706  -228.7075    83.6150 H6            1 RES     
    4817 H6         254.8666  -226.3531    85.6191 H6            1 RES     
    4818 H6         254.1756  -226.3816    83.9734 H6            1 RES     
    4819 H6         257.1685  -226.6881    84.6886 H6            1 RES     
    4820 H6         256.4722  -226.7385    83.0193 H6            1 RES     
    4821 H6         255.6007  -224.4073    83.3321 H6            1 RES     
    4822 H6         257.3871  -224.4880    83.5766 H6            1 RES     
    4823 H6         256.2904  -224.3745    85.0047 H6            1 RES     
    4824 H6         255.6286  -231.0410    88.0246 H6            1 RES     
    4825 H6         254.1353  -230.7727    87.0516 H6            1 RES     
    4826 H6         254.3850  -230.7577    90.1089 H6            1 RES     
    4827 H6         252.8364  -230.6267    89.1364 H6            1 RES     
    4828 H6         253.2226  -232.9016    88.2475 H6            1 RES     
    4829 H6         254.7685  -233.0143    89.1836 H6            1 RES     
    4830 H6         253.5148  -232.6930    91.3236 H6            1 RES     
    4831 H6         251.9722  -232.5684    90.3875 H6            1 RES     
    4832 H6         252.3016  -234.9167    89.5492 H6            1 RES     
    4833 H6         253.8691  -235.0052    90.4341 H6            1 RES     
    4834 H6         252.7103  -234.7439    92.6152 H6            1 RES     
    4835 H6         252.1420  -236.1783    91.6847 H6            1 RES     
    4836 H6         250.1171  -234.8982    90.9246 H6            1 RES     
    4837 H6         250.6456  -233.4780    91.9109 H6            1 RES     
    4838 H6         248.9573  -234.8022    93.1174 H6            1 RES     
    4839 H6         249.9935  -236.2763    93.0097 H6            1 RES     
    4840 H6         250.5407  -234.8493    93.9830 H6            1 RES     
    4841 C0         257.3983  -232.4546   100.3458 C0            1 RES     
    4842 C1         256.4282  -232.5073    99.1585 C1            1 RES     
    4843 C1         255.6224  -233.5920    99.1828 C1            1 RES     
    4844 S2         254.5543  -233.6208    97.8969 S2            1 RES     
    4845 C1         255.1475  -232.1495    97.2694 C1            1 RES     
    4846 C1         256.1755  -231.6561    98.0811 C1            1 RES     
    4847 C1         255.9535  -234.3636   100.3255 C1            1 RES     
    4848 C1         256.9825  -233.7760   101.0037 C1            1 RES     
    4849 C1         257.3801  -234.5144   102.1230 C1            1 RES     
    4850 C1         256.6118  -235.6990   102.2602 C1            1 RES     
    4851 S2         255.4398  -235.7791   101.0214 S2            1 RES     
    4852 H3         256.7075  -230.7331    97.8974 H3            1 RES     
    4853 H3         258.1827  -234.2065   102.7762 H3            1 RES     
    4854 N4         255.8255  -238.6988   104.4049 N4            1 RES     
    4855 C1         255.7023  -237.6769   103.5106 C1            1 RES     
    4856 C1         256.7717  -236.7847   103.2646 C1            1 RES     
    4857 C1         257.9693  -237.0109   103.9669 C1            1 RES     
    4858 N4         259.1030  -236.2810   103.8141 N4            1 RES     
    4859 S2         260.1583  -237.0342   104.8394 S2            1 RES     
    4860 N4         259.2663  -238.2629   105.4890 N4            1 RES     
    4861 C1         258.0673  -238.0989   104.8800 C1            1 RES     
    4862 C1         256.9761  -238.9308   105.0914 C1            1 RES     
    4863 H5         254.7555  -237.5588   103.0017 H5            1 RES     
    4864 C0         256.8885  -231.2146   101.1755 C0            1 RES     
    4865 C0         257.2851  -230.7736   102.6285 C0            1 RES     
    4866 C0         256.1628  -229.8385   103.2110 C0            1 RES     
    4867 C0         256.0516  -228.3575   102.7417 C0            1 RES     
    4868 C0         255.6571  -228.0572   101.2807 C0            1 RES     
    4869 C0         254.3353  -228.6897   100.8041 C0            1 RES     
    4870 C0         253.1109  -228.1944   101.5851 C0            1 RES     
    4871 C0         251.8281  -228.8108   101.0315 C0            1 RES     
    4872 C0         258.6465  -230.0419   102.8036 C0            1 RES     
    4873 C0         259.8643  -230.9465   102.9687 C0            1 RES     
    4874 C0         261.1572  -230.1112   103.0091 C0            1 RES     
    4875 C0         262.4110  -230.9934   103.1159 C0            1 RES     
    4876 C0         263.6847  -230.1537   102.9153 C0            1 RES     
    4877 C0         264.9715  -230.9932   102.8110 C0            1 RES     
    4878 C0         265.0060  -231.8675   101.5415 C0            1 RES     
    4879 C0         266.3364  -232.5998   101.3976 C0            1 RES     
    4880 H6         256.9885  -230.3434   100.5130 H6            1 RES     
    4881 H6         255.8040  -231.4375   101.2820 H6            1 RES     
    4882 H6         257.2500  -231.6730   103.2829 H6            1 RES     
    4883 H6         256.3582  -229.7720   104.3050 H6            1 RES     
    4884 H6         255.1704  -230.3305   103.1227 H6            1 RES     
    4885 H6         257.0078  -227.8330   102.9502 H6            1 RES     
    4886 H6         255.2909  -227.8756   103.3920 H6            1 RES     
    4887 H6         256.4744  -228.3513   100.6017 H6            1 RES     
    4888 H6         255.5754  -226.9541   101.1678 H6            1 RES     
    4889 H6         254.3892  -229.7922   100.8653 H6            1 RES     
    4890 H6         254.2014  -228.4198    99.7335 H6            1 RES     
    4891 H6         253.1977  -228.4737   102.6556 H6            1 RES     
    4892 H6         253.0416  -227.0879   101.5038 H6            1 RES     
    4893 H6         251.6962  -228.5367    99.9629 H6            1 RES     
    4894 H6         250.9553  -228.4337   101.6050 H6            1 RES     
    4895 H6         251.8621  -229.9177   101.1217 H6            1 RES     
    4896 H6         258.6300  -229.4572   103.7510 H6            1 RES     
    4897 H6         258.7733  -229.3206   101.9662 H6            1 RES     
    4898 H6         259.7629  -231.5539   103.8944 H6            1 RES     
    4899 H6         259.9093  -231.6194   102.1233 H6            1 RES     
    4900 H6         261.2093  -229.5364   102.0573 H6            1 RES     
    4901 H6         261.1365  -229.3906   103.8555 H6            1 RES     
    4902 H6         262.4391  -231.5201   104.0940 H6            1 RES     
    4903 H6         262.3588  -231.7606   102.3337 H6            1 RES     
    4904 H6         263.5999  -229.5520   101.9831 H6            1 RES     
    4905 H6         263.7766  -229.4476   103.7698 H6            1 RES     
    4906 H6         265.0932  -231.6215   103.7191 H6            1 RES     
    4907 H6         265.8260  -230.2836   102.7592 H6            1 RES     
    4908 H6         264.8620  -231.2254   100.6443 H6            1 RES     
    4909 H6         264.2058  -232.6304   101.5690 H6            1 RES     
    4910 H6         266.3233  -233.2099   100.4714 H6            1 RES     
    4911 H6         267.1736  -231.8723   101.3317 H6            1 RES     
    4912 H6         266.5012  -233.2733   102.2669 H6            1 RES     
    4913 C0         258.8498  -232.3188    99.7307 C0            1 RES     
    4914 C0         260.0645  -233.2447   100.0714 C0            1 RES     
    4915 C0         261.4130  -232.4680    99.8758 C0            1 RES     
    4916 C0         261.9694  -232.1650    98.4626 C0            1 RES     
    4917 C0         261.2247  -231.1273    97.5982 C0            1 RES     
    4918 C0         261.0297  -229.7366    98.2382 C0            1 RES     
    4919 C0         262.3403  -229.0390    98.6250 C0            1 RES     
    4920 C0         262.0612  -227.6518    99.2003 C0            1 RES     
    4921 C0         260.1806  -234.5911    99.2981 C0            1 RES     
    4922 C0         259.1123  -235.6195    99.6292 C0            1 RES     
    4923 C0         259.3847  -236.9778    98.9816 C0            1 RES     
    4924 C0         258.2962  -237.9722    99.4018 C0            1 RES     
    4925 C0         258.5289  -239.3550    98.7813 C0            1 RES     
    4926 C0         257.4899  -240.3943    99.2357 C0            1 RES     
    4927 C0         256.0569  -240.0472    98.8015 C0            1 RES     
    4928 C0         255.0783  -241.1409    99.2158 C0            1 RES     
    4929 H6         258.7958  -232.2754    98.6290 H6            1 RES     
    4930 H6         259.1292  -231.2941   100.0220 H6            1 RES     
    4931 H6         260.0186  -233.4820   101.1522 H6            1 RES     
    4932 H6         262.1924  -233.0962   100.3593 H6            1 RES     
    4933 H6         261.3847  -231.5120   100.4253 H6            1 RES     
    4934 H6         262.0751  -233.1084    97.8894 H6            1 RES     
    4935 H6         263.0021  -231.7804    98.6063 H6            1 RES     
    4936 H6         260.2419  -231.5248    97.2930 H6            1 RES     
    4937 H6         261.8052  -230.9981    96.6590 H6            1 RES     
    4938 H6         260.3913  -229.8052    99.1363 H6            1 RES     
    4939 H6         260.4931  -229.1022    97.4986 H6            1 RES     
    4940 H6         262.8770  -229.6305    99.3961 H6            1 RES     
    4941 H6         262.9894  -228.9366    97.7289 H6            1 RES     
    4942 H6         261.5411  -227.0194    98.4491 H6            1 RES     
    4943 H6         263.0172  -227.1611    99.4780 H6            1 RES     
    4944 H6         261.4258  -227.7307   100.1089 H6            1 RES     
    4945 H6         261.1500  -235.0554    99.5870 H6            1 RES     
    4946 H6         260.1947  -234.4103    98.2014 H6            1 RES     
    4947 H6         259.1113  -235.7737   100.7267 H6            1 RES     
    4948 H6         258.1401  -235.2525    99.2616 H6            1 RES     
    4949 H6         259.3956  -236.8700    97.8754 H6            1 RES     
    4950 H6         260.3756  -237.3585    99.3176 H6            1 RES     
    4951 H6         258.2953  -238.0684   100.5107 H6            1 RES     
    4952 H6         257.3154  -237.5693    99.0747 H6            1 RES     
    4953 H6         258.5173  -239.2765    97.6723 H6            1 RES     
    4954 H6         259.5321  -239.7198    99.0941 H6            1 RES     
    4955 H6         257.5315  -240.4995   100.3424 H6            1 RES     
    4956 H6         257.7710  -241.3706    98.7836 H6            1 RES     
    4957 H6         256.0205  -239.9318    97.6966 H6            1 RES     
    4958 H6         255.7259  -239.0994    99.2744 H6            1 RES     
    4959 H6         254.0535  -240.8643    98.8899 H6            1 RES     
    4960 H6         255.3548  -242.1062    98.7409 H6            1 RES     
    4961 H6         255.0805  -241.2615   100.3202 H6            1 RES     
    4962 C0         257.8011  -241.8470   109.5670 C0            1 RES     
    4963 C1         257.4701  -241.3793   108.1439 C1            1 RES     
    4964 C1         257.0136  -242.3758   107.3533 C1            1 RES     
    4965 S2         256.6332  -241.8444   105.8144 S2            1 RES     
    4966 C1         257.0682  -240.2353   106.1775 C1            1 RES     
    4967 C1         257.5044  -240.1389   107.5040 C1            1 RES     
    4968 C1         257.0011  -243.5729   108.1132 C1            1 RES     
    4969 C1         257.4726  -243.3322   109.3717 C1            1 RES     
    4970 C1         257.5202  -244.4877   110.1583 C1            1 RES     
    4971 C1         257.0723  -245.6235   109.4361 C1            1 RES     
    4972 S2         256.5934  -245.1614   107.8640 S2            1 RES     
    4973 H3         257.8278  -239.2207   107.9742 H3            1 RES     
    4974 H3         257.8709  -244.4902   111.1794 H3            1 RES     
    4975 N4         256.1878  -249.2860   109.5802 N4            1 RES     
    4976 C1         256.2170  -247.9732   109.2127 C1            1 RES     
    4977 C1         257.0437  -247.0421   109.8832 C1            1 RES     
    4978 C1         257.8455  -247.5340   110.9290 C1            1 RES     
    4979 N4         258.7274  -246.7882   111.6415 N4            1 RES     
    4980 S2         259.3930  -247.8993   112.6683 S2            1 RES     
    4981 N4         258.6301  -249.3090   112.2708 N4            1 RES     
    4982 C1         257.8021  -248.9147   111.2736 C1            1 RES     
    4983 C1         256.9567  -249.7769   110.5884 C1            1 RES     
    4984 H5         255.5778  -247.6594   108.3987 H5            1 RES     
    4985 C0         256.7087  -241.1283   110.4479 C0            1 RES     
    4986 C0         256.3335  -241.3831   111.9503 C0            1 RES     
    4987 C0         254.8834  -240.8383   112.2221 C0            1 RES     
    4988 C0         254.6334  -239.3081   112.3707 C0            1 RES     
    4989 C0         254.8378  -238.3887   111.1486 C0            1 RES     
    4990 C0         254.0356  -238.7673   109.8887 C0            1 RES     
    4991 C0         252.5167  -238.7068   110.0971 C0            1 RES     
    4992 C0         251.7774  -239.0353   108.8018 C0            1 RES     
    4993 C0         257.2746  -240.7787   113.0313 C0            1 RES     
    4994 C0         258.4834  -241.6321   113.4041 C0            1 RES     
    4995 C0         259.3973  -240.8761   114.3861 C0            1 RES     
    4996 C0         260.6570  -241.6824   114.7393 C0            1 RES     
    4997 C0         261.6553  -240.8139   115.5245 C0            1 RES     
    4998 C0         263.0234  -241.4859   115.7446 C0            1 RES     
    4999 C0         263.8003  -241.6906   114.4286 C0            1 RES     
    5000 C0         265.1977  -242.2481   114.6802 C0            1 RES     
    5001 H6         256.8702  -240.0496   110.3125 H6            1 RES     
    5002 H6         255.7689  -241.3999   109.9184 H6            1 RES     
    5003 H6         256.2388  -242.4817   112.1000 H6            1 RES     
    5004 H6         254.5738  -241.2692   113.2008 H6            1 RES     
    5005 H6         254.1708  -241.2597   111.4809 H6            1 RES     
    5006 H6         255.2557  -238.9129   113.2011 H6            1 RES     
    5007 H6         253.5783  -239.1899   112.6968 H6            1 RES     
    5008 H6         255.9100  -238.3252   110.9000 H6            1 RES     
    5009 H6         254.5521  -237.3560   111.4455 H6            1 RES     
    5010 H6         254.3188  -239.7767   109.5380 H6            1 RES     
    5011 H6         254.3090  -238.0456   109.0878 H6            1 RES     
    5012 H6         252.2044  -239.4379   110.8713 H6            1 RES     
    5013 H6         252.2276  -237.6851   110.4260 H6            1 RES     
    5014 H6         252.0507  -238.3108   108.0051 H6            1 RES     
    5015 H6         250.6818  -238.9784   108.9728 H6            1 RES     
    5016 H6         252.0320  -240.0623   108.4626 H6            1 RES     
    5017 H6         256.7190  -240.6862   113.9918 H6            1 RES     
    5018 H6         257.5694  -239.7541   112.7140 H6            1 RES     
    5019 H6         258.1462  -242.5946   113.8468 H6            1 RES     
    5020 H6         259.0416  -241.8488   112.5035 H6            1 RES     
    5021 H6         259.7103  -239.9320   113.8863 H6            1 RES     
    5022 H6         258.8486  -240.6168   115.3176 H6            1 RES     
    5023 H6         260.3915  -242.5937   115.3171 H6            1 RES     
    5024 H6         261.1258  -242.0140   113.8047 H6            1 RES     
    5025 H6         261.8340  -239.8578   114.9840 H6            1 RES     
    5026 H6         261.2051  -240.5686   116.5115 H6            1 RES     
    5027 H6         262.8935  -242.4540   116.2739 H6            1 RES     
    5028 H6         263.6233  -240.8103   116.3928 H6            1 RES     
    5029 H6         263.9028  -240.7157   113.9023 H6            1 RES     
    5030 H6         263.2709  -242.4015   113.7673 H6            1 RES     
    5031 H6         265.7245  -242.3735   113.7122 H6            1 RES     
    5032 H6         265.7843  -241.5506   115.3158 H6            1 RES     
    5033 H6         265.1327  -243.2379   115.1826 H6            1 RES     
    5034 C0         259.2980  -241.4146   109.8423 C0            1 RES     
    5035 C0         260.4347  -242.3665   110.3431 C0            1 RES     
    5036 C0         261.5112  -241.5548   111.1444 C0            1 RES     
    5037 C0         262.5253  -240.6329   110.4231 C0            1 RES     
    5038 C0         261.9950  -239.3338   109.7830 C0            1 RES     
    5039 C0         261.2224  -238.3876   110.7262 C0            1 RES     
    5040 C0         262.0373  -237.9107   111.9354 C0            1 RES     
    5041 C0         261.2196  -236.9403   112.7856 C0            1 RES     
    5042 C0         261.1844  -243.2147   109.2741 C0            1 RES     
    5043 C0         260.3549  -244.3058   108.6183 C0            1 RES     
    5044 C0         261.1907  -245.2178   107.7193 C0            1 RES     
    5045 C0         260.2978  -246.3193   107.1366 C0            1 RES     
    5046 C0         261.0932  -247.2663   106.2301 C0            1 RES     
    5047 C0         260.2395  -248.4222   105.6810 C0            1 RES     
    5048 C0         259.0894  -247.9491   104.7777 C0            1 RES     
    5049 C0         258.3186  -249.1340   104.2057 C0            1 RES     
    5050 H6         259.7082  -240.8790   108.9686 H6            1 RES     
    5051 H6         259.1749  -240.6264   110.6015 H6            1 RES     
    5052 H6         259.9921  -243.0679   111.0771 H6            1 RES     
    5053 H6         262.1362  -242.3158   111.6604 H6            1 RES     
    5054 H6         261.0259  -240.9515   111.9301 H6            1 RES     
    5055 H6         263.0852  -241.2124   109.6613 H6            1 RES     
    5056 H6         263.2751  -240.3314   111.1859 H6            1 RES     
    5057 H6         261.3604  -239.5726   108.9128 H6            1 RES     
    5058 H6         262.8702  -238.7806   109.3783 H6            1 RES     
    5059 H6         260.2996  -238.8695   111.0939 H6            1 RES     
    5060 H6         260.9168  -237.4999   110.1297 H6            1 RES     
    5061 H6         262.3195  -238.7745   112.5732 H6            1 RES     
    5062 H6         262.9605  -237.3993   111.5874 H6            1 RES     
    5063 H6         260.9338  -236.0486   112.1873 H6            1 RES     
    5064 H6         261.8202  -236.6065   113.6572 H6            1 RES     
    5065 H6         260.2974  -237.4360   113.1590 H6            1 RES     
    5066 H6         262.0190  -243.7372   109.7929 H6            1 RES     
    5067 H6         261.6194  -242.5572   108.4904 H6            1 RES     
    5068 H6         259.9248  -244.9395   109.4192 H6            1 RES     
    5069 H6         259.5744  -243.8345   107.9989 H6            1 RES     
    5070 H6         261.6443  -244.6213   106.8984 H6            1 RES     
    5071 H6         262.0042  -245.6866   108.3177 H6            1 RES     
    5072 H6         259.8490  -246.9066   107.9689 H6            1 RES     
    5073 H6         259.4840  -245.8345   106.5586 H6            1 RES     
    5074 H6         261.5352  -246.6951   105.3848 H6            1 RES     
    5075 H6         261.9234  -247.7101   106.8225 H6            1 RES     
    5076 H6         259.8310  -249.0155   106.5289 H6            1 RES     
    5077 H6         260.9091  -249.0818   105.0868 H6            1 RES     
    5078 H6         259.4993  -247.3474   103.9378 H6            1 RES     
    5079 H6         258.3742  -247.3254   105.3531 H6            1 RES     
    5080 H6         257.4958  -248.7633   103.5585 H6            1 RES     
    5081 H6         258.9911  -249.7736   103.5955 H6            1 RES     
    5082 H6         257.8802  -249.7409   105.0265 H6            1 RES     
    5083 C0         256.4704  -254.3822   113.3763 C0            1 RES     
    5084 C1         256.6743  -253.3292   112.2794 C1            1 RES     
    5085 C1         256.8480  -253.8706   111.0534 C1            1 RES     
    5086 S2         257.0427  -252.7096   109.8662 S2            1 RES     
    5087 C1         256.8861  -251.4291   110.9825 C1            1 RES     
    5088 C1         256.6812  -251.9330   112.2721 C1            1 RES     
    5089 C1         256.7990  -255.2819   111.1820 C1            1 RES     
    5090 C1         256.6194  -255.6256   112.4910 C1            1 RES     
    5091 C1         256.6017  -257.0105   112.6860 C1            1 RES     
    5092 C1         256.7870  -257.7068   111.4641 C1            1 RES     
    5093 S2         256.9262  -256.5948   110.1761 S2            1 RES     
    5094 H3         256.5458  -251.3196   113.1520 H3            1 RES     
    5095 H3         256.4752  -257.4664   113.6564 H3            1 RES     
    5096 N4         256.8236  -261.0577   109.7358 N4            1 RES     
    5097 C1         256.6931  -259.7204   109.9675 C1            1 RES     
    5098 C1         256.9093  -259.1745   111.2542 C1            1 RES     
    5099 C1         257.2827  -260.0677   112.2746 C1            1 RES     
    5100 N4         257.5734  -259.7048   113.5495 N4            1 RES     
    5101 S2         257.9831  -261.1446   114.2503 S2            1 RES     
    5102 N4         257.8204  -262.2392   113.0244 N4            1 RES     
    5103 C1         257.4267  -261.4556   111.9917 C1            1 RES     
    5104 C1         257.1840  -261.9338   110.7112 C1            1 RES     
    5105 H5         256.4056  -259.0871   109.1394 H5            1 RES     
    5106 C0         254.9713  -254.1646   113.8133 C0            1 RES     
    5107 C0         254.0662  -255.0797   114.7112 C0            1 RES     
    5108 C0         252.5545  -254.7500   114.4296 C0            1 RES     
    5109 C0         251.9093  -253.4586   115.0143 C0            1 RES     
    5110 C0         252.3881  -252.0815   114.5093 C0            1 RES     
    5111 C0         252.3122  -251.8676   112.9853 C0            1 RES     
    5112 C0         250.8823  -251.9426   112.4338 C0            1 RES     
    5113 C0         250.8645  -251.6667   110.9319 C0            1 RES     
    5114 C0         254.2858  -255.0082   116.2494 C0            1 RES     
    5115 C0         255.3865  -255.9101   116.8005 C0            1 RES     
    5116 C0         255.5883  -255.6592   118.3063 C0            1 RES     
    5117 C0         256.7305  -256.5091   118.8849 C0            1 RES     
    5118 C0         257.0629  -256.0670   120.3206 C0            1 RES     
    5119 C0         258.3244  -256.7344   120.8992 C0            1 RES     
    5120 C0         259.6105  -256.3042   120.1657 C0            1 RES     
    5121 C0         260.8570  -256.8831   120.8274 C0            1 RES     
    5122 H6         254.9135  -253.1379   114.2013 H6            1 RES     
    5123 H6         254.4396  -254.1888   112.8365 H6            1 RES     
    5124 H6         254.1810  -256.1291   114.3592 H6            1 RES     
    5125 H6         251.9709  -255.5839   114.8808 H6            1 RES     
    5126 H6         252.3467  -254.8068   113.3395 H6            1 RES     
    5127 H6         252.0064  -253.4675   116.1204 H6            1 RES     
    5128 H6         250.8209  -253.5246   114.8028 H6            1 RES     
    5129 H6         253.4153  -251.8880   114.8599 H6            1 RES     
    5130 H6         251.7670  -251.3014   115.0014 H6            1 RES     
    5131 H6         252.9484  -252.6026   112.4589 H6            1 RES     
    5132 H6         252.7195  -250.8557   112.7681 H6            1 RES     
    5133 H6         250.4546  -252.9517   112.6076 H6            1 RES     
    5134 H6         250.2473  -251.1869   112.9451 H6            1 RES     
    5135 H6         251.2692  -250.6541   110.7191 H6            1 RES     
    5136 H6         249.8212  -251.7183   110.5555 H6            1 RES     
    5137 H6         251.4750  -252.4231   110.3938 H6            1 RES     
    5138 H6         253.3706  -255.3727   116.7684 H6            1 RES     
    5139 H6         254.4346  -253.9444   116.5387 H6            1 RES     
    5140 H6         255.1327  -256.9762   116.6130 H6            1 RES     
    5141 H6         256.3080  -255.6833   116.2818 H6            1 RES     
    5142 H6         255.8495  -254.5843   118.4302 H6            1 RES     
    5143 H6         254.6518  -255.8618   118.8702 H6            1 RES     
    5144 H6         256.4698  -257.5890   118.8579 H6            1 RES     
    5145 H6         257.6157  -256.3714   118.2518 H6            1 RES     
    5146 H6         257.2212  -254.9660   120.3520 H6            1 RES     
    5147 H6         256.1922  -256.3049   120.9706 H6            1 RES     
    5148 H6         258.2163  -257.8399   120.8783 H6            1 RES     
    5149 H6         258.4127  -256.4115   121.9596 H6            1 RES     
    5150 H6         259.6917  -255.1945   120.1784 H6            1 RES     
    5151 H6         259.5977  -256.6511   119.1157 H6            1 RES     
    5152 H6         261.7580  -256.5452   120.2758 H6            1 RES     
    5153 H6         260.9338  -256.5352   121.8798 H6            1 RES     
    5154 H6         260.8222  -257.9943   120.8084 H6            1 RES     
    5155 C0         257.5586  -254.0870   114.4864 C0            1 RES     
    5156 C0         258.5653  -255.1362   115.0648 C0            1 RES     
    5157 C0         258.9727  -254.7502   116.5294 C0            1 RES     
    5158 C0         259.9457  -253.5789   116.8117 C0            1 RES     
    5159 C0         259.4454  -252.1432   116.5525 C0            1 RES     
    5160 C0         258.1451  -251.7438   117.2815 C0            1 RES     
    5161 C0         258.2303  -251.8467   118.8099 C0            1 RES     
    5162 C0         256.9243  -251.3846   119.4533 C0            1 RES     
    5163 C0         259.8757  -255.3919   114.2638 C0            1 RES     
    5164 C0         259.6888  -256.0872   112.9258 C0            1 RES     
    5165 C0         261.0174  -256.4748   112.2753 C0            1 RES     
    5166 C0         260.7465  -257.2137   110.9599 C0            1 RES     
    5167 C0         262.0514  -257.6301   110.2704 C0            1 RES     
    5168 C0         261.8134  -258.4319   108.9794 C0            1 RES     
    5169 C0         261.0797  -257.6278   107.8942 C0            1 RES     
    5170 C0         260.9307  -258.4432   106.6142 C0            1 RES     
    5171 H6         258.1606  -253.2049   114.2069 H6            1 RES     
    5172 H6         256.9414  -253.7302   115.3258 H6            1 RES     
    5173 H6         258.0337  -256.1036   115.1552 H6            1 RES     
    5174 H6         259.4805  -255.6478   116.9446 H6            1 RES     
    5175 H6         258.0717  -254.5787   117.1423 H6            1 RES     
    5176 H6         260.8961  -253.7383   116.2630 H6            1 RES     
    5177 H6         260.2053  -253.6379   117.8907 H6            1 RES     
    5178 H6         259.3172  -251.9772   115.4695 H6            1 RES     
    5179 H6         260.2504  -251.4470   116.8736 H6            1 RES     
    5180 H6         257.2974  -252.3608   116.9357 H6            1 RES     
    5181 H6         257.9203  -250.6895   117.0072 H6            1 RES     
    5182 H6         258.4114  -252.8989   119.1144 H6            1 RES     
    5183 H6         259.0631  -251.2123   119.1827 H6            1 RES     
    5184 H6         256.7167  -250.3255   119.1887 H6            1 RES     
    5185 H6         256.9997  -251.4674   120.5575 H6            1 RES     
    5186 H6         256.0779  -252.0165   119.1070 H6            1 RES     
    5187 H6         260.5088  -256.0734   114.8750 H6            1 RES     
    5188 H6         260.4322  -254.4414   114.1138 H6            1 RES     
    5189 H6         259.1237  -257.0242   113.1008 H6            1 RES     
    5190 H6         259.1579  -255.4047   112.2422 H6            1 RES     
    5191 H6         261.6204  -255.5613   112.0818 H6            1 RES     
    5192 H6         261.5856  -257.1447   112.9595 H6            1 RES     
    5193 H6         260.1407  -258.1240   111.1683 H6            1 RES     
    5194 H6         260.1657  -256.5387   110.2978 H6            1 RES     
    5195 H6         262.6606  -256.7284   110.0423 H6            1 RES     
    5196 H6         262.6307  -258.2747   110.9676 H6            1 RES     
    5197 H6         261.2376  -259.3536   109.2173 H6            1 RES     
    5198 H6         262.8075  -258.7360   108.5845 H6            1 RES     
    5199 H6         261.6514  -256.7022   107.6664 H6            1 RES     
    5200 H6         260.0624  -257.3482   108.2382 H6            1 RES     
    5201 H6         260.3986  -257.8389   105.8495 H6            1 RES     
    5202 H6         261.9294  -258.7222   106.2160 H6            1 RES     
    5203 H6         260.3435  -259.3655   106.8112 H6            1 RES     
    5204 C0         256.6701  -267.3117   110.8868 C0            1 RES     
    5205 C1         257.0637  -265.8722   110.5314 C1            1 RES     
    5206 C1         257.8646  -265.7966   109.4454 C1            1 RES     
    5207 S2         258.2628  -264.2201   109.0563 S2            1 RES     
    5208 C1         257.3477  -263.5868   110.3493 C1            1 RES     
    5209 C1         256.7409  -264.6239   111.0670 C1            1 RES     
    5210 C1         258.1026  -267.1142   108.9786 C1            1 RES     
    5211 C1         257.4716  -268.0167   109.7857 C1            1 RES     
    5212 C1         257.7026  -269.3401   109.3963 C1            1 RES     
    5213 C1         258.5487  -269.4042   108.2595 C1            1 RES     
    5214 S2         258.9528  -267.8271   107.7455 S2            1 RES     
    5215 H3         256.1033  -264.4779   111.9278 H3            1 RES     
    5216 H3         257.2884  -270.1883   109.9203 H3            1 RES     
    5217 N4         260.1109  -271.6096   105.6303 N4            1 RES     
    5218 C1         259.5806  -270.5249   106.2641 C1            1 RES     
    5219 C1         259.0935  -270.6151   107.5888 C1            1 RES     
    5220 C1         259.1989  -271.8644   108.2265 C1            1 RES     
    5221 N4         258.8253  -272.1107   109.5076 N4            1 RES     
    5222 S2         259.2279  -273.7020   109.7016 S2            1 RES     
    5223 N4         259.8664  -274.1273   108.2391 N4            1 RES     
    5224 C1         259.7747  -272.9707   107.5397 C1            1 RES     
    5225 C1         260.2199  -272.8236   106.2330 C1            1 RES     
    5226 H5         259.5306  -269.5924   105.7188 H5            1 RES     
    5227 C0         255.1232  -267.3496   110.5848 C0            1 RES     
    5228 C0         254.1687  -268.5922   110.4966 C0            1 RES     
    5229 C0         252.8892  -268.2054   109.6681 C0            1 RES     
    5230 C0         251.7703  -267.3331   110.3108 C0            1 RES     
    5231 C0         252.0757  -265.8660   110.6781 C0            1 RES     
    5232 C0         252.6056  -264.9878   109.5282 C0            1 RES     
    5233 C0         251.6084  -264.8380   108.3718 C0            1 RES     
    5234 C0         252.1648  -263.9132   107.2914 C0            1 RES     
    5235 C0         253.6905  -269.2190   111.8375 C0            1 RES     
    5236 C0         254.6325  -270.2472   112.4571 C0            1 RES     
    5237 C0         254.1100  -270.6999   113.8330 C0            1 RES     
    5238 C0         255.0642  -271.6932   114.5145 C0            1 RES     
    5239 C0         254.6400  -271.9406   115.9726 C0            1 RES     
    5240 C0         255.6550  -272.7686   116.7823 C0            1 RES     
    5241 C0         256.9878  -272.0239   116.9979 C0            1 RES     
    5242 C0         257.9335  -272.8109   117.8997 C0            1 RES     
    5243 H6         254.6639  -266.6109   111.2568 H6            1 RES     
    5244 H6         255.0791  -266.9416   109.5510 H6            1 RES     
    5245 H6         254.6679  -269.3661   109.8719 H6            1 RES     
    5246 H6         252.3860  -269.1663   109.4170 H6            1 RES     
    5247 H6         253.1840  -267.7679   108.6901 H6            1 RES     
    5248 H6         251.3877  -267.8390   111.2222 H6            1 RES     
    5249 H6         250.9250  -267.3212   109.5905 H6            1 RES     
    5250 H6         252.7783  -265.8285   111.5269 H6            1 RES     
    5251 H6         251.1388  -265.4071   111.0628 H6            1 RES     
    5252 H6         253.5597  -265.3906   109.1412 H6            1 RES     
    5253 H6         252.8132  -263.9781   109.9457 H6            1 RES     
    5254 H6         251.4007  -265.8260   107.9113 H6            1 RES     
    5255 H6         250.6569  -264.4099   108.7554 H6            1 RES     
    5256 H6         252.3682  -262.9049   107.7113 H6            1 RES     
    5257 H6         251.4254  -263.8128   106.4691 H6            1 RES     
    5258 H6         253.1064  -264.3304   106.8745 H6            1 RES     
    5259 H6         252.7573  -269.7996   111.6593 H6            1 RES     
    5260 H6         253.4448  -268.3979   112.5467 H6            1 RES     
    5261 H6         254.7438  -271.1188   111.7758 H6            1 RES     
    5262 H6         255.6039  -269.7894   112.5856 H6            1 RES     
    5263 H6         254.0300  -269.7915   114.4714 H6            1 RES     
    5264 H6         253.1005  -271.1569   113.7421 H6            1 RES     
    5265 H6         255.1046  -272.6498   113.9504 H6            1 RES     
    5266 H6         256.0736  -271.2639   114.5012 H6            1 RES     
    5267 H6         254.5032  -270.9696   116.4985 H6            1 RES     
    5268 H6         253.6598  -272.4666   115.9675 H6            1 RES     
    5269 H6         255.8322  -273.7473   116.2874 H6            1 RES     
    5270 H6         255.2053  -272.9581   117.7815 H6            1 RES     
    5271 H6         256.7896  -271.0384   117.4750 H6            1 RES     
    5272 H6         257.5048  -271.8587   116.0344 H6            1 RES     
    5273 H6         258.8745  -272.2396   118.0352 H6            1 RES     
    5274 H6         257.4711  -272.9748   118.8966 H6            1 RES     
    5275 H6         258.1752  -273.7938   117.4397 H6            1 RES     
    5276 C0         257.0793  -267.5257   112.4003 C0            1 RES     
    5277 C0         257.9627  -268.6998   112.9389 C0            1 RES     
    5278 C0         257.6050  -269.0086   114.4344 C0            1 RES     
    5279 C0         258.0568  -268.0697   115.5802 C0            1 RES     
    5280 C0         257.3886  -266.6838   115.6870 C0            1 RES     
    5281 C0         255.8481  -266.6870   115.7807 C0            1 RES     
    5282 C0         255.2981  -267.4679   116.9814 C0            1 RES     
    5283 C0         253.7742  -267.3767   117.0294 C0            1 RES     
    5284 C0         259.5083  -268.5356   112.8489 C0            1 RES     
    5285 C0         260.0783  -268.5548   111.4406 C0            1 RES     
    5286 C0         261.6074  -268.5759   111.4268 C0            1 RES     
    5287 C0         262.1048  -268.6461   109.9785 C0            1 RES     
    5288 C0         263.6365  -268.6758   109.9114 C0            1 RES     
    5289 C0         264.1673  -268.8123   108.4741 C0            1 RES     
    5290 C0         263.7959  -267.6214   107.5762 C0            1 RES     
    5291 C0         264.4030  -267.7731   106.1855 C0            1 RES     
    5292 H6         257.5143  -266.5991   112.8135 H6            1 RES     
    5293 H6         256.0989  -267.6013   112.8961 H6            1 RES     
    5294 H6         257.6898  -269.6154   112.3786 H6            1 RES     
    5295 H6         258.0858  -269.9851   114.6611 H6            1 RES     
    5296 H6         256.5169  -269.1534   114.5434 H6            1 RES     
    5297 H6         259.1580  -267.9420   115.5503 H6            1 RES     
    5298 H6         257.8395  -268.6043   116.5299 H6            1 RES     
    5299 H6         257.6969  -266.0489   114.8392 H6            1 RES     
    5300 H6         257.7900  -266.1898   116.5984 H6            1 RES     
    5301 H6         255.4009  -267.1001   114.8597 H6            1 RES     
    5302 H6         255.5176  -265.6280   115.8626 H6            1 RES     
    5303 H6         255.5771  -268.5396   116.9027 H6            1 RES     
    5304 H6         255.7166  -267.0518   117.9230 H6            1 RES     
    5305 H6         253.4533  -266.3175   117.1291 H6            1 RES     
    5306 H6         253.3909  -267.9481   117.9002 H6            1 RES     
    5307 H6         253.3320  -267.8028   116.1028 H6            1 RES     
    5308 H6         259.9639  -269.4052   113.3735 H6            1 RES     
    5309 H6         259.8323  -267.6076   113.3681 H6            1 RES     
    5310 H6         259.7331  -269.4823   110.9421 H6            1 RES     
    5311 H6         259.7425  -267.6492   110.9094 H6            1 RES     
    5312 H6         261.9992  -267.6602   111.9201 H6            1 RES     
    5313 H6         261.9725  -269.4697   111.9814 H6            1 RES     
    5314 H6         261.7034  -269.5658   109.4968 H6            1 RES     
    5315 H6         261.7181  -267.7581   109.4370 H6            1 RES     
    5316 H6         264.0513  -267.7548   110.3761 H6            1 RES     
    5317 H6         263.9999  -269.5526   110.4914 H6            1 RES     
    5318 H6         263.7823  -269.7549   108.0257 H6            1 RES     
    5319 H6         265.2757  -268.8823   108.5303 H6            1 RES     
    5320 H6         264.1720  -266.6801   108.0321 H6            1 RES     
    5321 H6         262.6946  -267.5509   107.4593 H6            1 RES     
    5322 H6         264.1191  -266.9006   105.5600 H6            1 RES     
    5323 H6         265.5108  -267.8190   106.2510 H6            1 RES     
    5324 H6         264.0256  -268.6979   105.6992 H6            1 RES     
    5325 C0         260.9747  -277.7098   104.0486 C0            1 RES     
    5326 C1         261.1272  -276.2566   104.5157 C1            1 RES     
    5327 C1         262.2700  -275.6798   104.0823 C1            1 RES     
    5328 S2         262.4084  -274.0891   104.5782 S2            1 RES     
    5329 C1         260.9095  -274.1300   105.3917 C1            1 RES     
    5330 C1         260.3211  -275.3931   105.2601 C1            1 RES     
    5331 C1         262.9893  -276.6381   103.3241 C1            1 RES     
    5332 C1         262.3100  -277.8222   103.3027 C1            1 RES     
    5333 C1         262.9916  -278.8207   102.5995 C1            1 RES     
    5334 C1         264.2287  -278.3445   102.0944 C1            1 RES     
    5335 S2         264.4251  -276.6967   102.4953 S2            1 RES     
    5336 H3         259.3640  -275.6667   105.6816 H3            1 RES     
    5337 H3         262.6089  -279.8235   102.4824 H3            1 RES     
    5338 N4         267.2339  -279.0863    99.9414 N4            1 RES     
    5339 C1         266.2437  -278.4179   100.5988 C1            1 RES     
    5340 C1         265.2772  -279.1085   101.3664 C1            1 RES     
    5341 C1         265.3954  -280.5083   101.4364 C1            1 RES     
    5342 N4         264.5837  -281.3158   102.1648 N4            1 RES     
    5343 S2         265.2313  -282.8131   101.8994 S2            1 RES     
    5344 N4         266.5111  -282.5165   100.8986 N4            1 RES     
    5345 C1         266.4530  -281.1710   100.7512 C1            1 RES     
    5346 C1         267.3618  -280.4388    99.9993 C1            1 RES     
    5347 H5         266.2099  -277.3410   100.5062 H5            1 RES     
    5348 C0         259.7604  -277.6423   103.0452 C0            1 RES     
    5349 C0         259.2593  -278.7322   102.0333 C0            1 RES     
    5350 C0         258.4013  -278.0418   100.9106 C0            1 RES     
    5351 C0         256.9436  -277.5802   101.2071 C0            1 RES     
    5352 C0         256.7058  -276.4312   102.2090 C0            1 RES     
    5353 C0         257.4482  -275.1162   101.9030 C0            1 RES     
    5354 C0         257.0322  -274.4824   100.5689 C0            1 RES     
    5355 C0         257.7573  -273.1566   100.3483 C0            1 RES     
    5356 C0         258.4213  -279.9083   102.6111 C0            1 RES     
    5357 C0         259.2255  -281.0837   103.1587 C0            1 RES     
    5358 C0         258.2925  -282.1214   103.8095 C0            1 RES     
    5359 C0         259.0729  -283.2935   104.4251 C0            1 RES     
    5360 C0         258.1420  -284.1832   105.2673 C0            1 RES     
    5361 C0         258.8819  -285.2644   106.0767 C0            1 RES     
    5362 C0         259.7777  -284.6675   107.1805 C0            1 RES     
    5363 C0         260.4081  -285.7553   108.0442 C0            1 RES     
    5364 H6         258.8983  -277.2980   103.6337 H6            1 RES     
    5365 H6         260.0639  -276.8121   102.3700 H6            1 RES     
    5366 H6         260.1446  -279.1283   101.4876 H6            1 RES     
    5367 H6         258.2967  -278.7965   100.0987 H6            1 RES     
    5368 H6         258.9701  -277.2027   100.4553 H6            1 RES     
    5369 H6         256.3426  -278.4521   101.5410 H6            1 RES     
    5370 H6         256.5081  -277.2632   100.2358 H6            1 RES     
    5371 H6         256.9503  -276.7656   103.2307 H6            1 RES     
    5372 H6         255.6148  -276.2174   102.2322 H6            1 RES     
    5373 H6         258.5417  -275.2785   101.9079 H6            1 RES     
    5374 H6         257.2122  -274.3999   102.7205 H6            1 RES     
    5375 H6         257.2812  -275.1599    99.7261 H6            1 RES     
    5376 H6         255.9364  -274.2959   100.5723 H6            1 RES     
    5377 H6         257.5170  -272.4428   101.1651 H6            1 RES     
    5378 H6         257.4366  -272.7121    99.3827 H6            1 RES     
    5379 H6         258.8561  -273.3185   100.3182 H6            1 RES     
    5380 H6         257.8195  -280.3667   101.7940 H6            1 RES     
    5381 H6         257.7103  -279.5025   103.3643 H6            1 RES     
    5382 H6         259.8191  -281.5502   102.3425 H6            1 RES     
    5383 H6         259.9108  -280.7115   103.9080 H6            1 RES     
    5384 H6         257.7357  -281.6020   104.6215 H6            1 RES     
    5385 H6         257.5577  -282.5108   103.0715 H6            1 RES     
    5386 H6         259.5750  -283.8905   103.6336 H6            1 RES     
    5387 H6         259.8583  -282.8817   105.0706 H6            1 RES     
    5388 H6         257.5685  -283.5582   105.9875 H6            1 RES     
    5389 H6         257.4129  -284.6722   104.5842 H6            1 RES     
    5390 H6         259.4794  -285.9092   105.3974 H6            1 RES     
    5391 H6         258.1098  -285.8955   106.5687 H6            1 RES     
    5392 H6         259.1678  -284.0090   107.8382 H6            1 RES     
    5393 H6         260.5992  -284.0727   106.7396 H6            1 RES     
    5394 H6         261.0369  -285.2857   108.8280 H6            1 RES     
    5395 H6         259.6199  -286.3628   108.5382 H6            1 RES     
    5396 H6         261.0483  -286.4182   107.4221 H6            1 RES     
    5397 C0         260.7405  -278.5756   105.3521 C0            1 RES     
    5398 C0         261.5626  -279.8459   105.7514 C0            1 RES     
    5399 C0         260.6886  -280.8056   106.6317 C0            1 RES     
    5400 C0         260.3737  -280.4763   108.1118 C0            1 RES     
    5401 C0         259.4151  -279.3041   108.4049 C0            1 RES     
    5402 C0         258.0303  -279.3845   107.7285 C0            1 RES     
    5403 C0         257.2257  -280.6363   108.1020 C0            1 RES     
    5404 C0         255.8522  -280.6115   107.4342 C0            1 RES     
    5405 C0         262.9121  -279.6235   106.4954 C0            1 RES     
    5406 C0         264.0126  -278.9908   105.6604 C0            1 RES     
    5407 C0         265.3593  -278.9684   106.3845 C0            1 RES     
    5408 C0         266.4255  -278.3648   105.4632 C0            1 RES     
    5409 C0         267.7991  -278.3259   106.1436 C0            1 RES     
    5410 C0         268.9055  -277.7856   105.2215 C0            1 RES     
    5411 C0         268.6792  -276.3262   104.7956 C0            1 RES     
    5412 C0         269.8361  -275.8187   103.9414 C0            1 RES     
    5413 H6         260.7248  -277.9263   106.2447 H6            1 RES     
    5414 H6         259.6914  -278.8896   105.2354 H6            1 RES     
    5415 H6         261.7797  -280.4151   104.8265 H6            1 RES     
    5416 H6         261.2445  -281.7678   106.6668 H6            1 RES     
    5417 H6         259.7262  -281.0089   106.1326 H6            1 RES     
    5418 H6         261.3181  -280.3238   108.6728 H6            1 RES     
    5419 H6         259.9077  -281.3874   108.5452 H6            1 RES     
    5420 H6         259.8936  -278.3477   108.1344 H6            1 RES     
    5421 H6         259.2615  -279.2667   109.5053 H6            1 RES     
    5422 H6         258.1288  -279.3466   106.6296 H6            1 RES     
    5423 H6         257.4550  -278.4849   108.0402 H6            1 RES     
    5424 H6         257.7576  -281.5499   107.7629 H6            1 RES     
    5425 H6         257.0926  -280.6816   109.2044 H6            1 RES     
    5426 H6         255.2778  -279.7195   107.7646 H6            1 RES     
    5427 H6         255.2834  -281.5235   107.7108 H6            1 RES     
    5428 H6         255.9605  -280.5825   106.3282 H6            1 RES     
    5429 H6         263.2942  -280.6257   106.7931 H6            1 RES     
    5430 H6         262.7542  -279.0235   107.4177 H6            1 RES     
    5431 H6         264.1430  -279.6002   104.7441 H6            1 RES     
    5432 H6         263.7295  -277.9508   105.4294 H6            1 RES     
    5433 H6         265.2746  -278.3661   107.3148 H6            1 RES     
    5434 H6         265.6553  -280.0078   106.6526 H6            1 RES     
    5435 H6         266.4979  -278.9761   104.5358 H6            1 RES     
    5436 H6         266.1064  -277.3370   105.1927 H6            1 RES     
    5437 H6         267.7453  -277.7054   107.0646 H6            1 RES     
    5438 H6         268.0787  -279.3617   106.4373 H6            1 RES     
    5439 H6         268.9836  -278.4320   104.3195 H6            1 RES     
    5440 H6         269.8666  -277.8481   105.7774 H6            1 RES     
    5441 H6         268.5905  -275.6844   105.6988 H6            1 RES     
    5442 H6         267.7499  -276.2356   104.1959 H6            1 RES     
    5443 H6         269.6462  -274.7644   103.6490 H6            1 RES     
    5444 H6         270.7870  -275.8640   104.5135 H6            1 RES     
    5445 H6         269.9326  -276.4320   103.0202 H6            1 RES     
    5446 C0         270.1100  -283.7905    96.7697 C0            1 RES     
    5447 C1         269.6995  -282.7025    97.7703 C1            1 RES     
    5448 C1         270.7448  -281.9661    98.2080 C1            1 RES     
    5449 S2         270.2772  -280.7689    99.2772 S2            1 RES     
    5450 C1         268.6319  -281.2075    99.1710 C1            1 RES     
    5451 C1         268.4740  -282.2876    98.2951 C1            1 RES     
    5452 C1         271.9229  -282.4614    97.5936 C1            1 RES     
    5453 C1         271.6199  -283.5229    96.7903 C1            1 RES     
    5454 C1         272.7513  -284.0797    96.1852 C1            1 RES     
    5455 C1         273.9333  -283.3985    96.5737 C1            1 RES     
    5456 S2         273.5431  -282.1061    97.6187 S2            1 RES     
    5457 H3         267.5239  -282.7441    98.0551 H3            1 RES     
    5458 H3         272.7051  -284.9295    95.5209 H3            1 RES     
    5459 N4         277.6492  -283.0177    96.0597 N4            1 RES     
    5460 C1         276.3462  -282.7416    96.3517 C1            1 RES     
    5461 C1         275.3401  -283.7265    96.2179 C1            1 RES     
    5462 C1         275.7464  -285.0036    95.7908 C1            1 RES     
    5463 N4         274.9199  -286.0714    95.6565 N4            1 RES     
    5464 S2         275.9542  -287.2717    95.1861 S2            1 RES     
    5465 N4         277.4267  -286.5255    95.1374 N4            1 RES     
    5466 C1         277.1187  -285.2605    95.5120 C1            1 RES     
    5467 C1         278.0579  -284.2468    95.6461 C1            1 RES     
    5468 H5         276.1000  -281.7403    96.6776 H5            1 RES     
    5469 C0         269.4590  -283.3043    95.4185 C0            1 RES     
    5470 C0         269.7100  -283.8299    93.9612 C0            1 RES     
    5471 C0         269.2729  -282.7262    92.9296 C0            1 RES     
    5472 C0         267.7638  -282.4820    92.6316 C0            1 RES     
    5473 C0         266.8576  -281.9161    93.7446 C0            1 RES     
    5474 C0         267.3235  -280.5882    94.3722 C0            1 RES     
    5475 C0         267.3759  -279.4293    93.3679 C0            1 RES     
    5476 C0         267.7879  -278.1309    94.0582 C0            1 RES     
    5477 C0         269.0121  -285.1590    93.5539 C0            1 RES     
    5478 C0         269.7616  -286.4363    93.9214 C0            1 RES     
    5479 C0         268.9168  -287.6772    93.5784 C0            1 RES     
    5480 C0         269.6158  -288.9827    93.9889 C0            1 RES     
    5481 C0         268.6565  -290.1781    93.8542 C0            1 RES     
    5482 C0         269.2162  -291.4912    94.4321 C0            1 RES     
    5483 C0         269.3883  -291.4377    95.9633 C0            1 RES     
    5484 C0         269.8309  -292.7838    96.5280 C0            1 RES     
    5485 H6         268.3742  -283.2831    95.5938 H6            1 RES     
    5486 H6         269.8135  -282.2518    95.3563 H6            1 RES     
    5487 H6         270.8092  -283.9162    93.8108 H6            1 RES     
    5488 H6         269.7056  -283.0344    91.9511 H6            1 RES     
    5489 H6         269.7637  -281.7593    93.1723 H6            1 RES     
    5490 H6         267.3042  -283.4242    92.2654 H6            1 RES     
    5491 H6         267.7203  -281.7701    91.7802 H6            1 RES     
    5492 H6         266.7169  -282.6706    94.5361 H6            1 RES     
    5493 H6         265.8438  -281.7609    93.3150 H6            1 RES     
    5494 H6         268.3154  -280.7102    94.8450 H6            1 RES     
    5495 H6         266.6001  -280.3246    95.1748 H6            1 RES     
    5496 H6         268.1122  -279.6466    92.5667 H6            1 RES     
    5497 H6         266.3727  -279.2896    92.9099 H6            1 RES     
    5498 H6         267.0615  -277.8693    94.8571 H6            1 RES     
    5499 H6         267.8120  -277.3053    93.3161 H6            1 RES     
    5500 H6         268.7991  -278.2366    94.5062 H6            1 RES     
    5501 H6         268.9422  -285.2120    92.4439 H6            1 RES     
    5502 H6         267.9747  -285.1540    93.9556 H6            1 RES     
    5503 H6         270.7376  -286.4696    93.3899 H6            1 RES     
    5504 H6         269.9537  -286.4276    94.9856 H6            1 RES     
    5505 H6         267.9622  -287.5939    94.1449 H6            1 RES     
    5506 H6         268.6808  -287.7074    92.4924 H6            1 RES     
    5507 H6         270.5324  -289.1456    93.3821 H6            1 RES     
    5508 H6         269.9301  -288.8896    95.0357 H6            1 RES     
    5509 H6         267.7011  -289.9596    94.3813 H6            1 RES     
    5510 H6         268.4257  -290.3218    92.7757 H6            1 RES     
    5511 H6         270.1799  -291.7453    93.9412 H6            1 RES     
    5512 H6         268.4827  -292.2940    94.1996 H6            1 RES     
    5513 H6         268.4198  -291.1619    96.4365 H6            1 RES     
    5514 H6         270.1518  -290.6893    96.2460 H6            1 RES     
    5515 H6         269.9359  -292.7052    97.6293 H6            1 RES     
    5516 H6         269.0769  -293.5669    96.2983 H6            1 RES     
    5517 H6         270.8119  -293.0789    96.0956 H6            1 RES     
    5518 C0         269.5577  -285.1572    97.3447 C0            1 RES     
    5519 C0         270.4084  -286.4517    97.5680 C0            1 RES     
    5520 C0         269.4992  -287.7254    97.4638 C0            1 RES     
    5521 C0         268.5174  -288.1083    98.5987 C0            1 RES     
    5522 C0         267.2769  -287.2176    98.8144 C0            1 RES     
    5523 C0         266.3733  -287.0150    97.5798 C0            1 RES     
    5524 C0         265.8094  -288.3184    96.9993 C0            1 RES     
    5525 C0         264.8871  -288.0256    95.8175 C0            1 RES     
    5526 C0         271.2187  -286.5590    98.8931 C0            1 RES     
    5527 C0         272.3842  -285.5921    99.0168 C0            1 RES     
    5528 C0         273.2480  -285.8689   100.2480 C0            1 RES     
    5529 C0         274.4271  -284.8897   100.2761 C0            1 RES     
    5530 C0         275.3291  -285.1314   101.4924 C0            1 RES     
    5531 C0         276.5587  -284.2074   101.5151 C0            1 RES     
    5532 C0         276.1950  -282.7188   101.6334 C0            1 RES     
    5533 C0         277.4477  -281.8536   101.7213 C0            1 RES     
    5534 H6         269.0108  -284.9823    98.2874 H6            1 RES     
    5535 H6         268.7654  -285.4084    96.6223 H6            1 RES     
    5536 H6         271.1260  -286.5359    96.7286 H6            1 RES     
    5537 H6         270.1986  -288.5865    97.3907 H6            1 RES     
    5538 H6         268.9186  -287.7029    96.5262 H6            1 RES     
    5539 H6         269.0681  -288.2044    99.5564 H6            1 RES     
    5540 H6         268.1429  -289.1272    98.3610 H6            1 RES     
    5541 H6         267.5824  -286.2315    99.2033 H6            1 RES     
    5542 H6         266.6667  -287.6853    99.6173 H6            1 RES     
    5543 H6         266.9170  -286.4820    96.7803 H6            1 RES     
    5544 H6         265.5246  -286.3670    97.8914 H6            1 RES     
    5545 H6         266.6351  -288.9675    96.6397 H6            1 RES     
    5546 H6         265.2358  -288.8603    97.7818 H6            1 RES     
    5547 H6         264.0330  -287.3928    96.1413 H6            1 RES     
    5548 H6         264.4895  -288.9768    95.4066 H6            1 RES     
    5549 H6         265.4444  -287.4972    95.0138 H6            1 RES     
    5550 H6         271.6642  -287.5785    98.9261 H6            1 RES     
    5551 H6         270.5465  -286.4446    99.7710 H6            1 RES     
    5552 H6         273.0321  -285.7182    98.1266 H6            1 RES     
    5553 H6         271.9878  -284.5669    99.0988 H6            1 RES     
    5554 H6         272.6358  -285.7545   101.1686 H6            1 RES     
    5555 H6         273.6399  -286.9101   100.2016 H6            1 RES     
    5556 H6         275.0295  -285.0138    99.3483 H6            1 RES     
    5557 H6         274.0189  -283.8583   100.3050 H6            1 RES     
    5558 H6         274.7436  -284.9959   102.4278 H6            1 RES     
    5559 H6         275.6949  -286.1813   101.4595 H6            1 RES     
    5560 H6         277.1636  -284.3741   100.5964 H6            1 RES     
    5561 H6         277.1773  -284.4926   102.3942 H6            1 RES     
    5562 H6         275.5815  -282.5570   102.5461 H6            1 RES     
    5563 H6         275.6162  -282.3880   100.7462 H6            1 RES     
    5564 H6         277.1554  -280.7856   101.8059 H6            1 RES     
    5565 H6         278.0464  -282.1309   102.6148 H6            1 RES     
    5566 H6         278.0690  -281.9816   100.8092 H6            1 RES     
    5567 C0         282.6266  -285.7121    93.1568 C0            1 RES     
    5568 C1         281.5846  -285.2039    94.1615 C1            1 RES     
    5569 C1         282.1370  -284.7214    95.2967 C1            1 RES     
    5570 S2         280.9899  -284.1481    96.3694 S2            1 RES     
    5571 C1         279.7018  -284.5287    95.3175 C1            1 RES     
    5572 C1         280.1925  -285.0993    94.1374 C1            1 RES     
    5573 C1         283.5448  -284.8582    95.1965 C1            1 RES     
    5574 C1         283.8734  -285.4484    94.0100 C1            1 RES     
    5575 C1         285.2510  -285.6454    93.8707 C1            1 RES     
    5576 C1         285.9569  -285.1867    95.0125 C1            1 RES     
    5577 S2         284.8651  -284.5158    96.1405 S2            1 RES     
    5578 H3         279.5728  -285.4194    93.3115 H3            1 RES     
    5579 H3         285.6947  -286.1038    92.9996 H3            1 RES     
    5580 N4         289.3310  -284.5300    96.5620 N4            1 RES     
    5581 C1         288.0030  -284.4456    96.2642 C1            1 RES     
    5582 C1         287.4149  -285.2862    95.2907 C1            1 RES     
    5583 C1         288.2547  -286.2224    94.6609 C1            1 RES     
    5584 N4         287.8435  -287.1327    93.7424 N4            1 RES     
    5585 S2         289.2322  -287.9666    93.4135 S2            1 RES     
    5586 N4         290.3619  -287.2456    94.3786 N4            1 RES     
    5587 C1         289.6331  -286.2941    95.0102 C1            1 RES     
    5588 C1         290.1558  -285.4295    95.9625 C1            1 RES     
    5589 H5         287.4115  -283.7057    96.7860 H5            1 RES     
    5590 C0         282.5160  -284.6825    91.9680 C0            1 RES     
    5591 C0         283.4789  -284.4864    90.7443 C0            1 RES     
    5592 C0         283.2727  -283.0459    90.1480 C0            1 RES     
    5593 C0         282.0227  -282.7278    89.2749 C0            1 RES     
    5594 C0         280.6239  -282.7472    89.9256 C0            1 RES     
    5595 C0         280.4489  -281.8364    91.1561 C0            1 RES     
    5596 C0         280.6456  -280.3478    90.8403 C0            1 RES     
    5597 C0         280.4039  -279.4928    92.0824 C0            1 RES     
    5598 C0         283.3580  -285.5032    89.5734 C0            1 RES     
    5599 C0         284.1604  -286.7912    89.7337 C0            1 RES     
    5600 C0         283.8628  -287.7618    88.5759 C0            1 RES     
    5601 C0         284.6096  -289.0955    88.7345 C0            1 RES     
    5602 C0         284.1127  -290.1223    87.7020 C0            1 RES     
    5603 C0         284.6685  -291.5417    87.9212 C0            1 RES     
    5604 C0         284.1561  -292.1824    89.2266 C0            1 RES     
    5605 C0         284.6230  -293.6279    89.3659 C0            1 RES     
    5606 H6         281.4888  -284.7677    91.5864 H6            1 RES     
    5607 H6         282.6019  -283.7079    92.4971 H6            1 RES     
    5608 H6         284.5235  -284.4702    91.1273 H6            1 RES     
    5609 H6         284.1393  -282.8683    89.4720 H6            1 RES     
    5610 H6         283.3686  -282.2823    90.9495 H6            1 RES     
    5611 H6         282.0006  -283.4128    88.4012 H6            1 RES     
    5612 H6         282.1770  -281.7090    88.8603 H6            1 RES     
    5613 H6         280.3444  -283.7811    90.1872 H6            1 RES     
    5614 H6         279.8837  -282.4377    89.1557 H6            1 RES     
    5615 H6         281.1437  -282.1363    91.9619 H6            1 RES     
    5616 H6         279.4135  -281.9808    91.5356 H6            1 RES     
    5617 H6         281.6807  -280.1624    90.4860 H6            1 RES     
    5618 H6         279.9304  -280.0390    90.0473 H6            1 RES     
    5619 H6         279.3679  -279.6374    92.4568 H6            1 RES     
    5620 H6         280.5437  -278.4205    91.8302 H6            1 RES     
    5621 H6         281.1223  -279.7665    92.8845 H6            1 RES     
    5622 H6         283.7808  -285.0501    88.6484 H6            1 RES     
    5623 H6         282.2799  -285.7041    89.3862 H6            1 RES     
    5624 H6         285.2466  -286.5583    89.7783 H6            1 RES     
    5625 H6         283.8743  -287.2602    90.6652 H6            1 RES     
    5626 H6         282.7685  -287.9655    88.5884 H6            1 RES     
    5627 H6         284.1249  -287.3030    87.5977 H6            1 RES     
    5628 H6         285.7067  -288.9454    88.6412 H6            1 RES     
    5629 H6         284.4175  -289.4786    89.7443 H6            1 RES     
    5630 H6         283.0024  -290.1877    87.7352 H6            1 RES     
    5631 H6         284.4032  -289.7680    86.6884 H6            1 RES     
    5632 H6         285.7793  -291.5242    87.9066 H6            1 RES     
    5633 H6         284.3173  -292.1691    87.0730 H6            1 RES     
    5634 H6         283.0435  -292.1726    89.2333 H6            1 RES     
    5635 H6         284.5252  -291.6255    90.1078 H6            1 RES     
    5636 H6         284.2285  -294.0534    90.3111 H6            1 RES     
    5637 H6         284.2479  -294.2394    88.5175 H6            1 RES     
    5638 H6         285.7337  -293.6731    89.3898 H6            1 RES     
    5639 C0         282.2249  -287.2034    92.8128 C0            1 RES     
    5640 C0         283.1809  -288.4391    92.9025 C0            1 RES     
    5641 C0         282.7336  -289.5484    91.8880 C0            1 RES     
    5642 C0         281.4850  -290.4254    92.1535 C0            1 RES     
    5643 C0         280.0980  -289.7571    92.0631 C0            1 RES     
    5644 C0         279.7845  -289.0388    90.7336 C0            1 RES     
    5645 C0         279.8481  -289.9513    89.5018 C0            1 RES     
    5646 C0         279.4745  -289.1769    88.2394 C0            1 RES     
    5647 C0         283.3518  -289.1155    94.2944 C0            1 RES     
    5648 C0         284.0877  -288.2828    95.3305 C0            1 RES     
    5649 C0         284.3854  -289.0666    96.6094 C0            1 RES     
    5650 C0         285.1709  -288.1793    97.5819 C0            1 RES     
    5651 C0         285.4999  -288.9242    98.8812 C0            1 RES     
    5652 C0         286.3450  -288.0826    99.8527 C0            1 RES     
    5653 C0         285.6231  -286.8170   100.3424 C0            1 RES     
    5654 C0         286.4746  -286.0567   101.3536 C0            1 RES     
    5655 H6         281.3052  -287.4862    93.3538 H6            1 RES     
    5656 H6         281.8990  -287.1188    91.7642 H6            1 RES     
    5657 H6         284.1843  -288.1183    92.5604 H6            1 RES     
    5658 H6         283.5803  -290.2672    91.8388 H6            1 RES     
    5659 H6         282.6190  -289.1176    90.8791 H6            1 RES     
    5660 H6         281.5824  -290.9316    93.1354 H6            1 RES     
    5661 H6         281.5009  -291.2350    91.3924 H6            1 RES     
    5662 H6         279.9654  -289.0468    92.8966 H6            1 RES     
    5663 H6         279.3351  -290.5511    92.2160 H6            1 RES     
    5664 H6         280.4723  -288.1896    90.5760 H6            1 RES     
    5665 H6         278.7568  -288.6213    90.8152 H6            1 RES     
    5666 H6         280.8765  -290.3487    89.3710 H6            1 RES     
    5667 H6         279.1436  -290.8015    89.6281 H6            1 RES     
    5668 H6         278.4404  -288.7786    88.3221 H6            1 RES     
    5669 H6         279.5277  -289.8483    87.3573 H6            1 RES     
    5670 H6         280.1770  -288.3297    88.0835 H6            1 RES     
    5671 H6         283.9693  -290.0293    94.1440 H6            1 RES     
    5672 H6         282.3646  -289.4259    94.7004 H6            1 RES     
    5673 H6         285.0616  -287.9778    94.8985 H6            1 RES     
    5674 H6         283.4628  -287.4148    95.5973 H6            1 RES     
    5675 H6         283.4325  -289.3948    97.0781 H6            1 RES     
    5676 H6         284.9949  -289.9650    96.3622 H6            1 RES     
    5677 H6         286.1205  -287.8566    97.0991 H6            1 RES     
    5678 H6         284.5568  -287.2820    97.8036 H6            1 RES     
    5679 H6         284.5591  -289.2397    99.3826 H6            1 RES     
    5680 H6         286.0830  -289.8371    98.6286 H6            1 RES     
    5681 H6         287.3031  -287.8019    99.3618 H6            1 RES     
    5682 H6         286.5799  -288.7202   100.7330 H6            1 RES     
    5683 H6         284.6612  -287.0995   100.8225 H6            1 RES     
    5684 H6         285.4155  -286.1342    99.4927 H6            1 RES     
    5685 H6         285.9294  -285.1495   101.6895 H6            1 RES     
    5686 H6         286.6842  -286.6944   102.2385 H6            1 RES     
    5687 H6         287.4350  -285.7443   100.8907 H6            1 RES     
    5688 C0         295.5523  -285.5061    95.6658 C0            1 RES     
    5689 C1         294.0946  -285.5310    96.1432 C1            1 RES     
    5690 C1         293.9806  -285.6016    97.4881 C1            1 RES     
    5691 S2         292.3867  -285.6016    97.9930 S2            1 RES     
    5692 C1         291.7985  -285.4947    96.3952 C1            1 RES     
    5693 C1         292.8638  -285.4586    95.4881 C1            1 RES     
    5694 C1         295.2856  -285.6461    98.0410 C1            1 RES     
    5695 C1         296.2167  -285.6283    97.0426 C1            1 RES     
    5696 C1         297.5262  -285.7095    97.5269 C1            1 RES     
    5697 C1         297.5491  -285.8007    98.9424 C1            1 RES     
    5698 S2         295.9569  -285.7375    99.5552 S2            1 RES     
    5699 H3         292.7491  -285.3848    94.4157 H3            1 RES     
    5700 H3         298.3926  -285.7142    96.8827 H3            1 RES     
    5701 N4         299.6829  -285.8388   102.0508 N4            1 RES     
    5702 C1         298.6291  -285.6592   101.2043 C1            1 RES     
    5703 C1         298.7284  -285.9819    99.8309 C1            1 RES     
    5704 C1         299.9520  -286.5128    99.3843 C1            1 RES     
    5705 N4         300.1991  -286.9184    98.1132 N4            1 RES     
    5706 S2         301.7501  -287.4815    98.2088 S2            1 RES     
    5707 N4         302.1560  -287.2492    99.7927 N4            1 RES     
    5708 C1         301.0250  -286.7031   100.3006 C1            1 RES     
    5709 C1         300.8718  -286.3509   101.6348 C1            1 RES     
    5710 H5         297.7150  -285.2490   101.6112 H5            1 RES     
    5711 C0         295.7157  -284.0529    95.0763 C0            1 RES     
    5712 C0         297.0298  -283.3028    94.6600 C0            1 RES     
    5713 C0         296.7604  -281.7534    94.6472 C0            1 RES     
    5714 C0         295.9635  -281.1036    93.4774 C0            1 RES     
    5715 C0         294.4698  -281.4470    93.3005 C0            1 RES     
    5716 C0         293.5780  -281.1953    94.5316 C0            1 RES     
    5717 C0         293.5301  -279.7208    94.9532 C0            1 RES     
    5718 C0         292.5883  -279.5256    96.1394 C0            1 RES     
    5719 C0         297.6630  -283.6827    93.2909 C0            1 RES     
    5720 C0         298.6021  -284.8852    93.3103 C0            1 RES     
    5721 C0         299.0643  -285.2339    91.8835 C0            1 RES     
    5722 C0         299.9664  -286.4777    91.8569 C0            1 RES     
    5723 C0         300.2148  -286.9377    90.4098 C0            1 RES     
    5724 C0         300.9446  -288.2897    90.3049 C0            1 RES     
    5725 C0         300.0950  -289.4630    90.8328 C0            1 RES     
    5726 C0         300.7874  -290.8041    90.6120 C0            1 RES     
    5727 H6         295.0005  -283.9798    94.2449 H6            1 RES     
    5728 H6         295.3344  -283.4213    95.9087 H6            1 RES     
    5729 H6         297.7760  -283.4377    95.4744 H6            1 RES     
    5730 H6         297.7624  -281.2697    94.6066 H6            1 RES     
    5731 H6         296.3224  -281.4328    95.6168 H6            1 RES     
    5732 H6         296.4779  -281.3197    92.5174 H6            1 RES     
    5733 H6         296.0321  -280.0042    93.6197 H6            1 RES     
    5734 H6         294.3602  -282.4936    92.9714 H6            1 RES     
    5735 H6         294.0764  -280.8398    92.4561 H6            1 RES     
    5736 H6         293.9142  -281.8113    95.3858 H6            1 RES     
    5737 H6         292.5466  -281.5194    94.2704 H6            1 RES     
    5738 H6         294.5408  -279.3716    95.2498 H6            1 RES     
    5739 H6         293.1685  -279.1032    94.1026 H6            1 RES     
    5740 H6         291.5587  -279.8476    95.8739 H6            1 RES     
    5741 H6         292.5627  -278.4524    96.4228 H6            1 RES     
    5742 H6         292.9405  -280.1160    97.0123 H6            1 RES     
    5743 H6         298.3174  -282.8507    92.9454 H6            1 RES     
    5744 H6         296.8484  -283.8018    92.5428 H6            1 RES     
    5745 H6         299.4767  -284.6729    93.9630 H6            1 RES     
    5746 H6         298.0681  -285.7312    93.7212 H6            1 RES     
    5747 H6         298.1514  -285.4461    91.2829 H6            1 RES     
    5748 H6         299.5996  -284.3765    91.4204 H6            1 RES     
    5749 H6         300.9288  -286.2767    92.3748 H6            1 RES     
    5750 H6         299.4610  -287.2803    92.4079 H6            1 RES     
    5751 H6         299.2462  -287.0364    89.8710 H6            1 RES     
    5752 H6         300.8147  -286.1569    89.8924 H6            1 RES     
    5753 H6         301.9171  -288.2422    90.8400 H6            1 RES     
    5754 H6         301.1470  -288.4736    89.2271 H6            1 RES     
    5755 H6         299.1178  -289.4827    90.3011 H6            1 RES     
    5756 H6         299.9110  -289.3565    91.9181 H6            1 RES     
    5757 H6         300.1425  -291.6200    90.9977 H6            1 RES     
    5758 H6         300.9652  -290.9743    89.5285 H6            1 RES     
    5759 H6         301.7583  -290.8299    91.1532 H6            1 RES     
    5760 C0         295.7018  -286.6893    94.6260 C0            1 RES     
    5761 C0         296.7927  -287.8098    94.6848 C0            1 RES     
    5762 C0         297.0963  -288.3504    93.2441 C0            1 RES     
    5763 C0         296.1012  -289.2809    92.5076 C0            1 RES     
    5764 C0         294.7690  -288.6758    92.0201 C0            1 RES     
    5765 C0         294.8889  -287.4413    91.1017 C0            1 RES     
    5766 C0         295.6842  -287.6965    89.8148 C0            1 RES     
    5767 C0         295.7097  -286.4437    88.9414 C0            1 RES     
    5768 C0         296.5118  -289.0385    95.5990 C0            1 RES     
    5769 C0         296.5169  -288.7477    97.0903 C0            1 RES     
    5770 C0         296.4204  -290.0181    97.9361 C0            1 RES     
    5771 C0         296.4828  -289.6488    99.4226 C0            1 RES     
    5772 C0         296.3957  -290.8930   100.3146 C0            1 RES     
    5773 C0         296.5215  -290.5626   101.8117 C0            1 RES     
    5774 C0         295.3821  -289.6721   102.3327 C0            1 RES     
    5775 C0         295.5160  -289.4320   103.8327 C0            1 RES     
    5776 H6         294.7359  -287.2072    94.4944 H6            1 RES     
    5777 H6         295.8422  -286.1471    93.6777 H6            1 RES     
    5778 H6         297.7383  -287.3462    95.0278 H6            1 RES     
    5779 H6         298.0277  -288.9497    93.3401 H6            1 RES     
    5780 H6         297.3221  -287.5127    92.5631 H6            1 RES     
    5781 H6         295.8897  -290.1741    93.1300 H6            1 RES     
    5782 H6         296.6306  -289.6583    91.6063 H6            1 RES     
    5783 H6         294.1304  -288.4225    92.8832 H6            1 RES     
    5784 H6         294.2263  -289.4703    91.4633 H6            1 RES     
    5785 H6         295.3547  -286.5972    91.6396 H6            1 RES     
    5786 H6         293.8571  -287.1294    90.8271 H6            1 RES     
    5787 H6         296.7326  -287.9682    90.0588 H6            1 RES     
    5788 H6         295.2172  -288.5277    89.2438 H6            1 RES     
    5789 H6         294.6765  -286.1496    88.6572 H6            1 RES     
    5790 H6         296.2903  -286.6422    88.0166 H6            1 RES     
    5791 H6         296.1883  -285.6017    89.4870 H6            1 RES     
    5792 H6         297.3323  -289.7711    95.4290 H6            1 RES     
    5793 H6         295.5508  -289.5213    95.3180 H6            1 RES     
    5794 H6         297.4787  -288.2582    97.3423 H6            1 RES     
    5795 H6         295.6514  -288.1087    97.3303 H6            1 RES     
    5796 H6         295.4669  -290.5444    97.7141 H6            1 RES     
    5797 H6         297.2714  -290.6934    97.6922 H6            1 RES     
    5798 H6         297.4407  -289.1211    99.6297 H6            1 RES     
    5799 H6         295.6390  -288.9630    99.6438 H6            1 RES     
    5800 H6         295.4359  -291.4225   100.1291 H6            1 RES     
    5801 H6         297.2294  -291.5794   100.0481 H6            1 RES     
    5802 H6         297.5002  -290.0685   102.0005 H6            1 RES     
    5803 H6         296.5046  -291.5238   102.3707 H6            1 RES     
    5804 H6         294.4051  -290.1630   102.1329 H6            1 RES     
    5805 H6         295.3992  -288.6837   101.8284 H6            1 RES     
    5806 H6         294.6815  -288.7874   104.1808 H6            1 RES     
    5807 H6         295.4750  -290.3960   104.3829 H6            1 RES     
    5808 H6         296.4773  -288.9222   104.0568 H6            1 RES     
    5809 C0         305.7306  -286.1618   103.9954 C0            1 RES     
    5810 C1         304.2604  -286.4332   103.6518 C1            1 RES     
    5811 C1         303.6065  -287.1069   104.6241 C1            1 RES     
    5812 S2         301.9997  -287.3716   104.2454 S2            1 RES     
    5813 C1         302.1388  -286.5672   102.7475 C1            1 RES     
    5814 C1         303.4460  -286.1005   102.5676 C1            1 RES     
    5815 C1         304.5225  -287.3668   105.6749 C1            1 RES     
    5816 C1         305.7556  -286.8782   105.3512 C1            1 RES     
    5817 C1         306.7133  -287.1397   106.3363 C1            1 RES     
    5818 C1         306.1540  -287.8606   107.4225 C1            1 RES     
    5819 S2         304.4879  -288.1177   107.1536 S2            1 RES     
    5820 H3         303.7835  -285.5523   101.6991 H3            1 RES     
    5821 H3         307.7448  -286.8328   106.2502 H3            1 RES     
    5822 N4         306.7076  -289.2515   110.8831 N4            1 RES     
    5823 C1         306.1037  -288.7326   109.7762 C1            1 RES     
    5824 C1         306.8502  -288.3970   108.6228 C1            1 RES     
    5825 C1         308.2350  -288.6405   108.6626 C1            1 RES     
    5826 N4         309.0869  -288.4217   107.6293 N4            1 RES     
    5827 S2         310.5352  -288.9316   108.2411 S2            1 RES     
    5828 N4         310.1622  -289.4315   109.7703 N4            1 RES     
    5829 C1         308.8286  -289.2001   109.8295 C1            1 RES     
    5830 C1         308.0446  -289.4928   110.9373 C1            1 RES     
    5831 H5         305.0348  -288.5717   109.8092 H5            1 RES     
    5832 C0         305.7783  -284.5959   104.1724 C0            1 RES     
    5833 C0         306.9248  -283.7088   104.7736 C0            1 RES     
    5834 C0         306.3266  -282.3277   105.2297 C0            1 RES     
    5835 C0         305.9726  -281.2374   104.1752 C0            1 RES     
    5836 C0         304.8243  -281.4978   103.1781 C0            1 RES     
    5837 C0         303.4627  -281.8504   103.8074 C0            1 RES     
    5838 C0         302.8914  -280.7274   104.6830 C0            1 RES     
    5839 C0         301.5186  -281.1113   105.2310 C0            1 RES     
    5840 C0         308.1495  -283.4140   103.8611 C0            1 RES     
    5841 C0         309.2475  -284.4735   103.8693 C0            1 RES     
    5842 C0         310.3400  -284.1286   102.8404 C0            1 RES     
    5843 C0         311.4350  -285.2050   102.7786 C0            1 RES     
    5844 C0         312.3757  -284.9551   101.5870 C0            1 RES     
    5845 C0         313.3792  -286.0965   101.3384 C0            1 RES     
    5846 C0         312.6917  -287.4008   100.8875 C0            1 RES     
    5847 C0         313.7091  -288.4809   100.5339 C0            1 RES     
    5848 H6         305.4891  -284.1710   103.2009 H6            1 RES     
    5849 H6         304.9416  -284.4177   104.8834 H6            1 RES     
    5850 H6         307.2630  -284.1803   105.7231 H6            1 RES     
    5851 H6         307.1042  -281.8551   105.8713 H6            1 RES     
    5852 H6         305.4561  -282.4903   105.9009 H6            1 RES     
    5853 H6         306.8809  -280.9844   103.5889 H6            1 RES     
    5854 H6         305.7108  -280.3200   104.7440 H6            1 RES     
    5855 H6         305.1170  -282.2846   102.4635 H6            1 RES     
    5856 H6         304.6948  -280.5836   102.5587 H6            1 RES     
    5857 H6         303.5402  -282.7783   104.4035 H6            1 RES     
    5858 H6         302.7496  -282.0448   102.9763 H6            1 RES     
    5859 H6         303.5654  -280.5272   105.5415 H6            1 RES     
    5860 H6         302.7899  -279.8004   104.0781 H6            1 RES     
    5861 H6         300.8083  -281.3018   104.3983 H6            1 RES     
    5862 H6         301.1208  -280.2831   105.8545 H6            1 RES     
    5863 H6         301.5960  -282.0244   105.8594 H6            1 RES     
    5864 H6         308.6701  -282.5010   104.2288 H6            1 RES     
    5865 H6         307.7837  -283.2004   102.8324 H6            1 RES     
    5866 H6         309.6841  -284.5594   104.8882 H6            1 RES     
    5867 H6         308.8077  -285.4258   103.6061 H6            1 RES     
    5868 H6         309.8479  -284.0671   101.8439 H6            1 RES     
    5869 H6         310.8005  -283.1425   103.0677 H6            1 RES     
    5870 H6         312.0082  -285.2380   103.7301 H6            1 RES     
    5871 H6         310.9503  -286.1814   102.6559 H6            1 RES     
    5872 H6         311.7817  -284.8216   100.6556 H6            1 RES     
    5873 H6         312.9339  -284.0112   101.7736 H6            1 RES     
    5874 H6         313.9903  -286.2739   102.2491 H6            1 RES     
    5875 H6         314.0573  -285.7684   100.5205 H6            1 RES     
    5876 H6         312.0684  -287.2002    99.9879 H6            1 RES     
    5877 H6         312.0449  -287.8008   101.6903 H6            1 RES     
    5878 H6         313.1759  -289.3975   100.2086 H6            1 RES     
    5879 H6         314.3650  -288.1386    99.7049 H6            1 RES     
    5880 H6         314.3338  -288.7265   101.4204 H6            1 RES     
    5881 C0         306.5840  -286.7432   102.7965 C0            1 RES     
    5882 C0         307.7783  -287.7440   102.9410 C0            1 RES     
    5883 C0         308.7837  -287.5676   101.7501 C0            1 RES     
    5884 C0         308.4482  -288.0869   100.3302 C0            1 RES     
    5885 C0         307.3475  -287.3573    99.5335 C0            1 RES     
    5886 C0         307.5487  -285.8386    99.3471 C0            1 RES     
    5887 C0         308.8506  -285.4661    98.6259 C0            1 RES     
    5888 C0         308.9459  -283.9534    98.4360 C0            1 RES     
    5889 C0         307.4369  -289.2593   103.0480 C0            1 RES     
    5890 C0         306.7391  -289.6743   104.3323 C0            1 RES     
    5891 C0         306.5976  -291.1917   104.4593 C0            1 RES     
    5892 C0         305.9333  -291.5331   105.7980 C0            1 RES     
    5893 C0         305.7742  -293.0479   105.9759 C0            1 RES     
    5894 C0         305.1700  -293.4274   107.3386 C0            1 RES     
    5895 C0         303.7417  -292.8950   107.5367 C0            1 RES     
    5896 C0         303.1648  -293.3562   108.8709 C0            1 RES     
    5897 H6         305.9191  -287.1675   102.0242 H6            1 RES     
    5898 H6         306.9803  -285.8278   102.3299 H6            1 RES     
    5899 H6         308.3486  -287.4641   103.8482 H6            1 RES     
    5900 H6         309.6992  -288.1241   102.0472 H6            1 RES     
    5901 H6         309.0711  -286.5075   101.6486 H6            1 RES     
    5902 H6         308.2115  -289.1696   100.3714 H6            1 RES     
    5903 H6         309.3831  -288.0037    99.7351 H6            1 RES     
    5904 H6         306.3629  -287.5363    99.9978 H6            1 RES     
    5905 H6         307.2986  -287.8264    98.5268 H6            1 RES     
    5906 H6         307.5267  -285.3186   100.3208 H6            1 RES     
    5907 H6         306.6897  -285.4599    98.7505 H6            1 RES     
    5908 H6         309.7275  -285.7947    99.2222 H6            1 RES     
    5909 H6         308.8825  -285.9596    97.6307 H6            1 RES     
    5910 H6         308.0940  -283.5863    97.8243 H6            1 RES     
    5911 H6         309.8929  -283.6990    97.9162 H6            1 RES     
    5912 H6         308.9322  -283.4385    99.4210 H6            1 RES     
    5913 H6         308.4000  -289.8169   103.0312 H6            1 RES     
    5914 H6         306.8313  -289.5847   102.1745 H6            1 RES     
    5915 H6         307.3560  -289.3299   105.1861 H6            1 RES     
    5916 H6         305.7292  -289.2328   104.3463 H6            1 RES     
    5917 H6         305.9839  -291.5824   103.6190 H6            1 RES     
    5918 H6         307.6051  -291.6641   104.4214 H6            1 RES     
    5919 H6         306.5568  -291.1344   106.6294 H6            1 RES     
    5920 H6         304.9391  -291.0410   105.8257 H6            1 RES     
    5921 H6         305.1403  -293.4580   105.1598 H6            1 RES     
    5922 H6         306.7789  -293.5204   105.9074 H6            1 RES     
    5923 H6         305.8274  -293.0499   108.1528 H6            1 RES     
    5924 H6         305.1464  -294.5376   107.3984 H6            1 RES     
    5925 H6         303.0896  -293.2647   106.7159 H6            1 RES     
    5926 H6         303.7358  -291.7853   107.5303 H6            1 RES     
    5927 H6         302.1347  -292.9579   108.9868 H6            1 RES     
    5928 H6         303.1245  -294.4654   108.9111 H6            1 RES     
    5929 H6         303.7883  -292.9810   109.7104 H6            1 RES     
    5930 C0         311.2424  -290.2808   115.2233 C0            1 RES     
    5931 C1         310.1683  -290.4010   114.1346 C1            1 RES     
    5932 C1         309.3444  -291.4562   114.3199 C1            1 RES     
    5933 S2         308.1643  -291.5577   113.1399 S2            1 RES     
    5934 C1         308.7305  -290.1599   112.3424 C1            1 RES     
    5935 C1         309.8380  -289.6327   113.0166 C1            1 RES     
    5936 C1         309.7603  -292.1422   115.4891 C1            1 RES     
    5937 C1         310.8589  -291.5320   116.0228 C1            1 RES     
    5938 C1         311.3396  -292.1888   117.1602 C1            1 RES     
    5939 C1         310.5611  -293.3355   117.4626 C1            1 RES     
    5940 S2         309.2807  -293.4812   116.3428 S2            1 RES     
    5941 H3         310.3714  -288.7434   112.7107 H3            1 RES     
    5942 H3         312.2043  -291.8526   117.7123 H3            1 RES     
    5943 N4         309.9061  -296.1279   119.9101 N4            1 RES     
    5944 C1         309.7251  -295.1785   118.9483 C1            1 RES     
    5945 C1         310.7872  -294.3407   118.5357 C1            1 RES     
    5946 C1         312.0380  -294.5441   119.1462 C1            1 RES     
    5947 N4         313.1690  -293.8624   118.8340 N4            1 RES     
    5948 S2         314.2957  -294.5606   119.8214 S2            1 RES     
    5949 N4         313.4394  -295.7063   120.6469 N4            1 RES     
    5950 C1         312.1942  -295.5572   120.1343 C1            1 RES     
    5951 C1         311.1086  -296.3370   120.5094 C1            1 RES     
    5952 H5         308.7390  -295.0744   118.5167 H5            1 RES     
    5953 C0         310.8367  -288.9635   115.9887 C0            1 RES     
    5954 C0         311.3722  -288.4182   117.3594 C0            1 RES     
    5955 C0         310.3277  -287.4067   117.9587 C0            1 RES     
    5956 C0         310.2070  -285.9659   117.3796 C0            1 RES     
    5957 C0         309.6890  -285.7733   115.9391 C0            1 RES     
    5958 C0         308.3161  -286.4034   115.6350 C0            1 RES     
    5959 C0         307.1783  -285.8111   116.4770 C0            1 RES     
    5960 C0         305.8376  -286.4325   116.0917 C0            1 RES     
    5961 C0         312.7595  -287.7147   117.3525 C0            1 RES     
    5962 C0         313.9672  -288.6381   117.4843 C0            1 RES     
    5963 C0         315.2764  -287.8404   117.3411 C0            1 RES     
    5964 C0         316.5152  -288.7472   117.4100 C0            1 RES     
    5965 C0         317.7836  -287.9641   117.0289 C0            1 RES     
    5966 C0         319.0371  -288.8464   116.8818 C0            1 RES     
    5967 C0         318.9379  -289.8211   115.6913 C0            1 RES     
    5968 C0         320.2336  -290.6011   115.4922 C0            1 RES     
    5969 H6         310.8955  -288.1520   115.2499 H6            1 RES     
    5970 H6         309.7615  -289.1453   116.2085 H6            1 RES     
    5971 H6         311.3767  -289.2603   118.0869 H6            1 RES     
    5972 H6         310.6224  -287.2577   119.0220 H6            1 RES     
    5973 H6         309.3209  -287.8751   117.9994 H6            1 RES     
    5974 H6         311.1893  -285.4544   117.4588 H6            1 RES     
    5975 H6         309.5187  -285.4110   118.0520 H6            1 RES     
    5976 H6         310.4352  -286.1450   115.2176 H6            1 RES     
    5977 H6         309.6216  -284.6810   115.7426 H6            1 RES     
    5978 H6         308.3513  -287.4985   115.7827 H6            1 RES     
    5979 H6         308.0921  -286.2172   114.5617 H6            1 RES     
    5980 H6         307.3551  -286.0053   117.5551 H6            1 RES     
    5981 H6         307.1261  -284.7133   116.3104 H6            1 RES     
    5982 H6         305.6158  -286.2420   115.0198 H6            1 RES     
    5983 H6         305.0285  -285.9851   116.7065 H6            1 RES     
    5984 H6         305.8555  -287.5290   116.2703 H6            1 RES     
    5985 H6         312.8413  -287.0551   118.2458 H6            1 RES     
    5986 H6         312.8260  -287.0675   116.4501 H6            1 RES     
    5987 H6         313.9364  -289.1655   118.4626 H6            1 RES     
    5988 H6         313.9210  -289.3782   116.6971 H6            1 RES     
    5989 H6         315.2550  -287.3462   116.3439 H6            1 RES     
    5990 H6         315.3478  -287.0534   118.1232 H6            1 RES     
    5991 H6         316.6198  -289.1938   118.4223 H6            1 RES     
    5992 H6         316.3759  -289.5734   116.7020 H6            1 RES     
    5993 H6         317.6283  -287.4374   116.0610 H6            1 RES     
    5994 H6         317.9676  -287.1942   117.8103 H6            1 RES     
    5995 H6         319.2265  -289.4025   117.8247 H6            1 RES     
    5996 H6         319.8988  -288.1686   116.6961 H6            1 RES     
    5997 H6         318.7276  -289.2497   114.7600 H6            1 RES     
    5998 H6         318.1270  -290.5556   115.8525 H6            1 RES     
    5999 H6         320.1237  -291.2834   114.6246 H6            1 RES     
    6000 H6         321.0772  -289.9061   115.2925 H6            1 RES     
    6001 H6         320.4613  -291.2066   116.3965 H6            1 RES     
    6002 C0         312.6351  -290.2375   114.4735 C0            1 RES     
    6003 C0         313.8551  -291.1679   114.7817 C0            1 RES     
    6004 C0         315.1971  -290.4492   114.4042 C0            1 RES     
    6005 C0         315.6303  -290.2778   112.9273 C0            1 RES     
    6006 C0         314.8334  -289.2922   112.0485 C0            1 RES     
    6007 C0         314.7274  -287.8491   112.5854 C0            1 RES     
    6008 C0         316.0824  -287.1611   112.7960 C0            1 RES     
    6009 C0         315.8868  -285.7244   113.2763 C0            1 RES     
    6010 C0         313.8715  -292.5752   114.1158 C0            1 RES     
    6011 C0         312.8152  -293.5419   114.6241 C0            1 RES     
    6012 C0         312.9984  -294.9555   114.0702 C0            1 RES     
    6013 C0         311.9308  -295.8805   114.6658 C0            1 RES     
    6014 C0         312.0764  -297.3151   114.1443 C0            1 RES     
    6015 C0         311.0601  -298.2835   114.7733 C0            1 RES     
    6016 C0         309.6017  -297.9310   114.4396 C0            1 RES     
    6017 C0         308.6409  -298.9587   115.0280 C0            1 RES     
    6018 H6         312.4829  -290.2818   113.3811 H6            1 RES     
    6019 H6         312.9619  -289.2013   114.6529 H6            1 RES     
    6020 H6         313.9016  -291.3156   115.8784 H6            1 RES     
    6021 H6         316.0030  -291.0588   114.8677 H6            1 RES     
    6022 H6         315.2393  -289.4515   114.8727 H6            1 RES     
    6023 H6         315.6633  -291.2672   112.4273 H6            1 RES     
    6024 H6         316.6798  -289.9132   112.9469 H6            1 RES     
    6025 H6         313.8187  -289.6842   111.8652 H6            1 RES     
    6026 H6         315.3296  -289.2562   111.0544 H6            1 RES     
    6027 H6         314.1712  -287.8263   113.5388 H6            1 RES     
    6028 H6         314.1402  -287.2613   111.8458 H6            1 RES     
    6029 H6         316.6735  -287.7037   113.5633 H6            1 RES     
    6030 H6         316.6501  -287.1504   111.8407 H6            1 RES     
    6031 H6         315.3149  -285.1398   112.5239 H6            1 RES     
    6032 H6         316.8743  -285.2409   113.4269 H6            1 RES     
    6033 H6         315.3342  -285.7110   114.2407 H6            1 RES     
    6034 H6         314.8526  -293.0428   114.3558 H6            1 RES     
    6035 H6         313.7906  -292.4842   113.0109 H6            1 RES     
    6036 H6         312.9099  -293.6068   115.7264 H6            1 RES     
    6037 H6         311.8221  -293.1776   114.3143 H6            1 RES     
    6038 H6         312.9119  -294.9379   112.9622 H6            1 RES     
    6039 H6         314.0070  -295.3366   114.3481 H6            1 RES     
    6040 H6         312.0278  -295.8867   115.7746 H6            1 RES     
    6041 H6         310.9336  -295.4769   114.3940 H6            1 RES     
    6042 H6         311.9665  -297.3262   113.0380 H6            1 RES     
    6043 H6         313.0954  -297.6825   114.3968 H6            1 RES     
    6044 H6         311.1991  -298.3001   115.8769 H6            1 RES     
    6045 H6         311.2780  -299.3010   114.3809 H6            1 RES     
    6046 H6         309.4683  -297.9044   113.3365 H6            1 RES     
    6047 H6         309.3355  -296.9388   114.8594 H6            1 RES     
    6048 H6         307.5971  -298.6795   114.7718 H6            1 RES     
    6049 H6         308.8522  -299.9668   114.6125 H6            1 RES     
    6050 H6         308.7400  -298.9896   116.1341 H6            1 RES     
    6051 C0         312.2699  -298.9047   125.1219 C0            1 RES     
    6052 C1         311.8223  -298.5441   123.6996 C1            1 RES     
    6053 C1         311.2747  -299.5875   123.0378 C1            1 RES     
    6054 S2         310.7688  -299.1714   121.4996 S2            1 RES     
    6055 C1         311.2698  -297.5516   121.6879 C1            1 RES     
    6056 C1         311.8258  -297.3610   122.9582 C1            1 RES     
    6057 C1         311.3046  -300.7185   123.8927 C1            1 RES     
    6058 C1         311.8928  -300.3907   125.0804 C1            1 RES     
    6059 C1         311.9860  -301.4796   125.9531 C1            1 RES     
    6060 C1         311.4501  -302.6566   125.3701 C1            1 RES     
    6061 S2         310.8415  -302.3093   123.8133 S2            1 RES     
    6062 H3         312.2103  -296.4177   123.3201 H3            1 RES     
    6063 H3         312.4272  -301.4098   126.9360 H3            1 RES     
    6064 N4         310.5024  -306.2681   125.8955 N4            1 RES     
    6065 C1         310.5269  -304.9907   125.4189 C1            1 RES     
    6066 C1         311.4309  -304.0329   125.9343 C1            1 RES     
    6067 C1         312.3128  -304.4618   126.9427 C1            1 RES     
    6068 N4         313.2714  -303.6870   127.5102 N4            1 RES     
    6069 S2         314.0026  -304.7303   128.5632 S2            1 RES     
    6070 N4         313.1763  -306.1447   128.3531 N4            1 RES     
    6071 C1         312.2706  -305.8083   127.4033 C1            1 RES     
    6072 C1         311.3482  -306.6981   126.8694 C1            1 RES     
    6073 H5         309.8240  -304.7252   124.6412 H5            1 RES     
    6074 C0         311.2774  -298.0856   126.0328 C0            1 RES     
    6075 C0         311.0337  -298.2070   127.5783 C0            1 RES     
    6076 C0         309.6264  -297.6000   127.9306 C0            1 RES     
    6077 C0         309.4242  -296.0562   127.9729 C0            1 RES     
    6078 C0         309.5375  -295.2449   126.6654 C0            1 RES     
    6079 C0         308.6170  -295.7005   125.5168 C0            1 RES     
    6080 C0         307.1247  -295.5791   125.8525 C0            1 RES     
    6081 C0         306.2646  -295.9896   124.6592 C0            1 RES     
    6082 C0         312.0815  -297.5450   128.5182 C0            1 RES     
    6083 C0         313.3001  -298.4003   128.8527 C0            1 RES     
    6084 C0         314.3151  -297.5944   129.6842 C0            1 RES     
    6085 C0         315.5836  -298.4059   129.9909 C0            1 RES     
    6086 C0         316.6674  -297.5062   130.6101 C0            1 RES     
    6087 C0         318.0347  -298.1979   130.7639 C0            1 RES     
    6088 C0         318.6851  -298.5309   129.4063 C0            1 RES     
    6089 C0         320.0870  -299.1067   129.5793 C0            1 RES     
    6090 H6         311.4496  -297.0266   125.7945 H6            1 RES     
    6091 H6         310.2880  -298.3716   125.6125 H6            1 RES     
    6092 H6         310.9289  -299.2867   127.8266 H6            1 RES     
    6093 H6         309.3969  -297.9412   128.9652 H6            1 RES     
    6094 H6         308.8408  -298.0590   127.2927 H6            1 RES     
    6095 H6         310.1273  -295.6135   128.7095 H6            1 RES     
    6096 H6         308.4056  -295.8812   128.3797 H6            1 RES     
    6097 H6         310.5841  -295.2331   126.3189 H6            1 RES     
    6098 H6         309.3024  -294.1837   126.8994 H6            1 RES     
    6099 H6         308.8453  -296.7429   125.2277 H6            1 RES     
    6100 H6         308.8327  -295.0542   124.6378 H6            1 RES     
    6101 H6         306.8676  -296.2358   126.7093 H6            1 RES     
    6102 H6         306.8888  -294.5262   126.1195 H6            1 RES     
    6103 H6         306.4807  -295.3401   123.7841 H6            1 RES     
    6104 H6         305.1904  -295.8872   124.9207 H6            1 RES     
    6105 H6         306.4651  -297.0476   124.3854 H6            1 RES     
    6106 H6         311.6169  -297.3589   129.5129 H6            1 RES     
    6107 H6         312.3688  -296.5584   128.0922 H6            1 RES     
    6108 H6         312.9832  -299.3136   129.4019 H6            1 RES     
    6109 H6         313.7699  -298.7053   127.9276 H6            1 RES     
    6110 H6         314.6022  -296.7033   129.0820 H6            1 RES     
    6111 H6         313.8584  -297.2447   130.6357 H6            1 RES     
    6112 H6         315.3514  -299.2594   130.6636 H6            1 RES     
    6113 H6         315.9589  -298.8255   129.0494 H6            1 RES     
    6114 H6         316.8174  -296.6026   129.9784 H6            1 RES     
    6115 H6         316.3134  -297.1689   131.6092 H6            1 RES     
    6116 H6         317.9320  -299.1157   131.3813 H6            1 RES     
    6117 H6         318.7052  -297.4899   131.2984 H6            1 RES     
    6118 H6         318.7610  -297.6050   128.7938 H6            1 RES     
    6119 H6         318.0828  -299.2772   128.8556 H6            1 RES     
    6120 H6         320.5215  -299.3253   128.5825 H6            1 RES     
    6121 H6         320.7436  -298.3775   130.1005 H6            1 RES     
    6122 H6         320.0460  -300.0503   130.1659 H6            1 RES     
    6123 C0         313.7947  -298.4953   125.2274 C0            1 RES     
    6124 C0         314.9508  -299.4364   125.7035 C0            1 RES     
    6125 C0         316.1127  -298.5943   126.3366 C0            1 RES     
    6126 C0         317.0775  -297.7637   125.4547 C0            1 RES     
    6127 C0         316.5201  -296.5057   124.7579 C0            1 RES     
    6128 C0         315.8565  -295.4642   125.6836 C0            1 RES     
    6129 C0         316.7874  -294.9150   126.7725 C0            1 RES     
    6130 C0         316.0711  -293.8557   127.6078 C0            1 RES     
    6131 C0         315.5824  -300.3897   124.6468 C0            1 RES     
    6132 C0         314.6735  -301.5056   124.1596 C0            1 RES     
    6133 C0         315.4047  -302.5113   123.2694 C0            1 RES     
    6134 C0         314.4390  -303.6297   122.8612 C0            1 RES     
    6135 C0         315.1286  -304.6698   121.9700 C0            1 RES     
    6136 C0         314.2038  -305.8408   121.5963 C0            1 RES     
    6137 C0         312.9876  -305.4090   120.7616 C0            1 RES     
    6138 C0         312.1426  -306.6133   120.3601 C0            1 RES     
    6139 H6         314.1360  -298.0443   124.2795 H6            1 RES     
    6140 H6         313.7577  -297.6451   125.9263 H6            1 RES     
    6141 H6         314.5610  -300.0630   126.5294 H6            1 RES     
    6142 H6         316.7649  -299.3290   126.8570 H6            1 RES     
    6143 H6         315.7135  -297.9156   127.1091 H6            1 RES     
    6144 H6         317.5537  -298.4190   124.6973 H6            1 RES     
    6145 H6         317.8994  -297.4235   126.1207 H6            1 RES     
    6146 H6         315.8046  -296.7954   123.9699 H6            1 RES     
    6147 H6         317.3671  -296.0128   124.2331 H6            1 RES     
    6148 H6         314.9604  -295.8877   126.1700 H6            1 RES     
    6149 H6         315.5178  -294.6190   125.0447 H6            1 RES     
    6150 H6         317.1070  -295.7324   127.4525 H6            1 RES     
    6151 H6         317.6864  -294.4606   126.3033 H6            1 RES     
    6152 H6         315.7520  -293.0073   126.9650 H6            1 RES     
    6153 H6         316.7550  -293.4701   128.3923 H6            1 RES     
    6154 H6         315.1757  -294.2925   128.1009 H6            1 RES     
    6155 H6         316.4488  -300.8927   125.1317 H6            1 RES     
    6156 H6         315.9592  -299.8107   123.7759 H6            1 RES     
    6157 H6         314.3037  -302.0597   125.0452 H6            1 RES     
    6158 H6         313.8508  -301.0634   123.5743 H6            1 RES     
    6159 H6         315.7953  -301.9966   122.3651 H6            1 RES     
    6160 H6         316.2585  -302.9537   123.8307 H6            1 RES     
    6161 H6         314.0545  -304.1345   123.7757 H6            1 RES     
    6162 H6         313.5872  -303.1698   122.3189 H6            1 RES     
    6163 H6         315.5049  -304.1819   121.0446 H6            1 RES     
    6164 H6         315.9990  -305.0883   122.5218 H6            1 RES     
    6165 H6         313.8607  -306.3515   122.5232 H6            1 RES     
    6166 H6         314.8026  -306.5656   121.0023 H6            1 RES     
    6167 H6         313.3331  -304.8894   119.8418 H6            1 RES     
    6168 H6         312.3410  -304.7202   121.3439 H6            1 RES     
    6169 H6         311.2731  -306.2723   119.7594 H6            1 RES     
    6170 H6         312.7433  -307.3194   119.7484 H6            1 RES     
    6171 H6         311.7670  -307.1387   121.2640 H6            1 RES     
    6172 C0         311.0149  -311.0467   130.0623 C0            1 RES     
    6173 C1         311.1420  -310.0923   128.8680 C1            1 RES     
    6174 C1         311.1925  -310.7359   127.6807 C1            1 RES     
    6175 S2         311.3047  -309.6808   126.3886 S2            1 RES     
    6176 C1         311.2774  -308.3102   127.4041 C1            1 RES     
    6177 C1         311.1786  -308.7021   128.7441 C1            1 RES     
    6178 C1         311.1245  -312.1301   127.9300 C1            1 RES     
    6179 C1         311.0562  -312.3615   129.2738 C1            1 RES     
    6180 C1         311.0260  -313.7249   129.5840 C1            1 RES     
    6181 C1         311.0850  -314.5229   128.4126 C1            1 RES     
    6182 S2         311.1318  -313.5232   127.0295 S2            1 RES     
    6183 H3         311.1366  -308.0158   129.5784 H3            1 RES     
    6184 H3         310.9775  -314.0971   130.5963 H3            1 RES     
    6185 N4         310.8924  -318.0022   126.9724 N4            1 RES     
    6186 C1         310.8126  -316.6472   127.1028 C1            1 RES     
    6187 C1         311.1559  -316.0057   128.3155 C1            1 RES     
    6188 C1         311.6002  -316.8240   129.3698 C1            1 RES     
    6189 N4         312.0125  -316.3678   130.5795 N4            1 RES     
    6190 S2         312.4522  -317.7576   131.3588 S2            1 RES     
    6191 N4         312.1557  -318.9425   130.2472 N4            1 RES     
    6192 C1         311.6878  -318.2338   129.1917 C1            1 RES     
    6193 C1         311.3201  -318.8067   127.9817 C1            1 RES     
    6194 H5         310.4655  -316.0749   126.2534 H5            1 RES     
    6195 C0         309.5664  -310.7509   130.6100 C0            1 RES     
    6196 C0         308.7262  -311.5637   131.6572 C0            1 RES     
    6197 C0         307.2028  -311.2138   131.4833 C0            1 RES     
    6198 C0         306.6413  -309.8611   132.0133 C0            1 RES     
    6199 C0         307.1026  -308.5439   131.3554 C0            1 RES     
    6200 C0         306.8943  -308.4518   129.8315 C0            1 RES     
    6201 C0         305.4192  -308.5294   129.4162 C0            1 RES     
    6202 C0         305.2720  -308.3754   127.9040 C0            1 RES     
    6203 C0         309.0851  -311.3745   133.1588 C0            1 RES     
    6204 C0         310.2110  -312.2605   133.6838 C0            1 RES     
    6205 C0         310.5533  -311.8948   135.1399 C0            1 RES     
    6206 C0         311.7242  -312.7280   135.6842 C0            1 RES     
    6207 C0         312.1943  -312.1812   137.0434 C0            1 RES     
    6208 C0         313.4879  -312.8362   137.5621 C0            1 RES     
    6209 C0         314.7117  -312.5043   136.6850 C0            1 RES     
    6210 C0         315.9999  -313.0640   137.2801 C0            1 RES     
    6211 H6         309.5662  -309.6950   130.9149 H6            1 RES     
    6212 H6         308.9484  -310.8385   129.6893 H6            1 RES     
    6213 H6         308.7858  -312.6410   131.3849 H6            1 RES     
    6214 H6         306.6442  -311.9911   132.0519 H6            1 RES     
    6215 H6         306.8964  -311.3525   130.4243 H6            1 RES     
    6216 H6         306.8375  -309.7834   133.1034 H6            1 RES     
    6217 H6         305.5371  -309.9123   131.9047 H6            1 RES     
    6218 H6         308.1612  -308.3527   131.5968 H6            1 RES     
    6219 H6         306.5456  -307.7088   131.8336 H6            1 RES     
    6220 H6         307.4642  -309.2452   129.3139 H6            1 RES     
    6221 H6         307.3023  -307.4731   129.4959 H6            1 RES     
    6222 H6         304.9869  -309.5082   129.7103 H6            1 RES     
    6223 H6         304.8495  -307.7167   129.9168 H6            1 RES     
    6224 H6         305.6779  -307.3956   127.5729 H6            1 RES     
    6225 H6         304.1981  -308.4268   127.6265 H6            1 RES     
    6226 H6         305.8148  -309.1903   127.3790 H6            1 RES     
    6227 H6         308.2127  -311.6689   133.7849 H6            1 RES     
    6228 H6         309.2825  -310.2955   133.3444 H6            1 RES     
    6229 H6         309.9181  -313.3304   133.6086 H6            1 RES     
    6230 H6         311.0867  -312.1034   133.0689 H6            1 RES     
    6231 H6         310.8480  -310.8214   135.1505 H6            1 RES     
    6232 H6         309.6672  -312.0237   135.7990 H6            1 RES     
    6233 H6         311.4386  -313.7985   135.7702 H6            1 RES     
    6234 H6         312.5514  -312.6678   134.9664 H6            1 RES     
    6235 H6         312.3788  -311.0864   136.9691 H6            1 RES     
    6236 H6         311.3807  -312.3403   137.7850 H6            1 RES     
    6237 H6         313.3542  -313.9361   137.6427 H6            1 RES     
    6238 H6         313.6785  -312.4313   138.5800 H6            1 RES     
    6239 H6         314.8180  -311.4001   136.5982 H6            1 RES     
    6240 H6         314.5967  -312.9345   135.6727 H6            1 RES     
    6241 H6         316.8547  -312.7982   136.6251 H6            1 RES     
    6242 H6         316.1789  -312.6345   138.2891 H6            1 RES     
    6243 H6         315.9393  -314.1716   137.3567 H6            1 RES     
    6244 C0         312.2049  -310.6946   131.0439 C0            1 RES     
    6245 C0         313.2365  -311.7226   131.6166 C0            1 RES     
    6246 C0         313.7826  -311.2315   133.0024 C0            1 RES     
    6247 C0         314.8025  -310.0701   133.0996 C0            1 RES     
    6248 C0         314.3123  -308.6461   132.7670 C0            1 RES     
    6249 C0         313.0921  -308.1512   133.5719 C0            1 RES     
    6250 C0         313.3125  -308.1327   135.0901 C0            1 RES     
    6251 C0         312.0803  -307.5822   135.8054 C0            1 RES     
    6252 C0         314.4635  -312.0803   130.7273 C0            1 RES     
    6253 C0         314.1415  -312.8757   129.4734 C0            1 RES     
    6254 C0         315.3973  -313.3532   128.7429 C0            1 RES     
    6255 C0         314.9928  -314.1879   127.5224 C0            1 RES     
    6256 C0         316.2208  -314.6965   126.7577 C0            1 RES     
    6257 C0         315.8499  -315.5927   125.5638 C0            1 RES     
    6258 C0         315.0390  -314.8580   124.4844 C0            1 RES     
    6259 C0         314.7575  -315.7695   123.2947 C0            1 RES     
    6260 H6         312.7984  -309.8560   130.6401 H6            1 RES     
    6261 H6         311.6738  -310.2533   131.9018 H6            1 RES     
    6262 H6         312.6942  -312.6636   131.8335 H6            1 RES     
    6263 H6         314.3062  -312.1070   133.4444 H6            1 RES     
    6264 H6         312.9446  -310.9848   133.6759 H6            1 RES     
    6265 H6         315.6958  -310.3010   132.4844 H6            1 RES     
    6266 H6         315.1570  -310.0492   134.1526 H6            1 RES     
    6267 H6         314.0907  -308.5644   131.6895 H6            1 RES     
    6268 H6         315.1580  -307.9499   132.9570 H6            1 RES     
    6269 H6         312.2034  -308.7692   133.3547 H6            1 RES     
    6270 H6         312.8666  -307.1164   133.2318 H6            1 RES     
    6271 H6         313.4973  -309.1616   135.4639 H6            1 RES     
    6272 H6         314.1892  -307.4948   135.3341 H6            1 RES     
    6273 H6         311.8728  -306.5424   135.4731 H6            1 RES     
    6274 H6         312.2531  -307.5776   136.9017 H6            1 RES     
    6275 H6         311.1925  -308.2151   135.5887 H6            1 RES     
    6276 H6         315.1341  -312.7283   131.3349 H6            1 RES     
    6277 H6         315.0248  -311.1617   130.4504 H6            1 RES     
    6278 H6         313.5741  -313.7787   129.7747 H6            1 RES     
    6279 H6         313.5661  -312.2355   128.7848 H6            1 RES     
    6280 H6         316.0002  -312.4764   128.4218 H6            1 RES     
    6281 H6         316.0100  -313.9820   129.4277 H6            1 RES     
    6282 H6         314.3885  -315.0603   127.8583 H6            1 RES     
    6283 H6         314.3695  -313.5520   126.8602 H6            1 RES     
    6284 H6         316.8265  -313.8344   126.4027 H6            1 RES     
    6285 H6         316.8464  -315.2993   127.4523 H6            1 RES     
    6286 H6         315.2779  -316.4750   125.9272 H6            1 RES     
    6287 H6         316.7974  -315.9567   125.1096 H6            1 RES     
    6288 H6         315.6079  -313.9709   124.1310 H6            1 RES     
    6289 H6         314.0632  -314.5219   124.8922 H6            1 RES     
    6290 H6         314.1719  -315.2137   122.5323 H6            1 RES     
    6291 H6         315.7098  -316.1088   122.8347 H6            1 RES     
    6292 H6         314.1704  -316.6554   123.6186 H6            1 RES     
    6293 C0         310.7069  -324.1355   128.6484 C0            1 RES     
    6294 C1         311.0981  -322.7416   128.1412 C1            1 RES     
    6295 C1         311.7993  -322.7774   126.9864 C1            1 RES     
    6296 S2         312.1952  -321.2498   126.4340 S2            1 RES     
    6297 C1         311.4144  -320.4876   127.7454 C1            1 RES     
    6298 C1         310.8523  -321.4452   128.5975 C1            1 RES     
    6299 C1         311.9655  -324.1348   126.6116 C1            1 RES     
    6300 C1         311.3903  -324.9503   127.5433 C1            1 RES     
    6301 C1         311.5562  -326.3070   127.2465 C1            1 RES     
    6302 C1         312.2948  -326.4874   126.0489 C1            1 RES     
    6303 S2         312.6852  -324.9696   125.3719 S2            1 RES     
    6304 H3         310.2983  -321.2115   129.4960 H3            1 RES     
    6305 H3         311.1726  -327.0977   127.8736 H3            1 RES     
    6306 N4         313.5650  -328.9428   123.4848 N4            1 RES     
    6307 C1         313.1178  -327.7954   124.0704 C1            1 RES     
    6308 C1         312.7504  -327.7640   125.4357 C1            1 RES     
    6309 C1         312.8854  -328.9602   126.1633 C1            1 RES     
    6310 N4         312.6237  -329.0911   127.4884 N4            1 RES     
    6311 S2         313.0073  -330.6726   127.7777 S2            1 RES     
    6312 N4         313.5018  -331.2332   126.3051 N4            1 RES     
    6313 C1         313.3727  -330.1347   125.5228 C1            1 RES     
    6314 C1         313.7014  -330.1067   124.1742 C1            1 RES     
    6315 H5         313.0392  -326.9090   123.4560 H5            1 RES     
    6316 C0         309.1386  -324.1525   128.4880 C0            1 RES     
    6317 C0         308.1532  -325.3699   128.5878 C0            1 RES     
    6318 C0         306.8129  -325.0141   127.8459 C0            1 RES     
    6319 C0         305.7759  -324.0605   128.5099 C0            1 RES     
    6320 C0         306.1451  -322.5780   128.7257 C0            1 RES     
    6321 C0         306.5882  -321.8115   127.4646 C0            1 RES     
    6322 C0         305.4942  -321.7266   126.3920 C0            1 RES     
    6323 C0         305.9710  -320.9088   125.1937 C0            1 RES     
    6324 C0         307.7843  -325.8720   130.0130 C0            1 RES     
    6325 C0         308.7556  -326.8738   130.6306 C0            1 RES     
    6326 C0         308.3495  -327.1983   132.0800 C0            1 RES     
    6327 C0         309.3394  -328.1607   132.7550 C0            1 RES     
    6328 C0         309.0431  -328.2770   134.2603 C0            1 RES     
    6329 C0         310.1087  -329.0660   135.0435 C0            1 RES     
    6330 C0         311.4714  -328.3455   135.0782 C0            1 RES     
    6331 C0         312.4772  -329.0842   135.9554 C0            1 RES     
    6332 H6         308.7580  -323.3489   129.1340 H6            1 RES     
    6333 H6         309.0104  -323.8284   127.4317 H6            1 RES     
    6334 H6         308.5770  -326.2060   127.9881 H6            1 RES     
    6335 H6         306.2683  -325.9771   127.7208 H6            1 RES     
    6336 H6         307.0278  -324.6659   126.8128 H6            1 RES     
    6337 H6         305.4660  -324.4796   129.4903 H6            1 RES     
    6338 H6         304.8695  -324.0822   127.8684 H6            1 RES     
    6339 H6         306.9220  -322.4925   129.5032 H6            1 RES     
    6340 H6         305.2569  -322.0624   129.1519 H6            1 RES     
    6341 H6         307.4944  -322.2719   127.0299 H6            1 RES     
    6342 H6         306.8545  -320.7778   127.7768 H6            1 RES     
    6343 H6         305.2244  -322.7422   126.0354 H6            1 RES     
    6344 H6         304.5908  -321.2413   126.8210 H6            1 RES     
    6345 H6         306.2334  -319.8763   125.5088 H6            1 RES     
    6346 H6         305.1629  -320.8537   124.4343 H6            1 RES     
    6347 H6         306.8619  -321.3857   124.7316 H6            1 RES     
    6348 H6         306.8263  -326.4376   129.9666 H6            1 RES     
    6349 H6         307.6215  -324.9895   130.6704 H6            1 RES     
    6350 H6         308.7859  -327.8004   130.0170 H6            1 RES     
    6351 H6         309.7444  -326.4356   130.6345 H6            1 RES     
    6352 H6         308.3473  -326.2393   132.6452 H6            1 RES     
    6353 H6         307.3262  -327.6315   132.1167 H6            1 RES     
    6354 H6         309.3079  -329.1605   132.2710 H6            1 RES     
    6355 H6         310.3526  -327.7635   132.6172 H6            1 RES     
    6356 H6         308.9756  -327.2630   134.7136 H6            1 RES     
    6357 H6         308.0553  -328.7727   134.3853 H6            1 RES     
    6358 H6         310.2192  -330.0863   134.6179 H6            1 RES     
    6359 H6         309.7469  -329.1609   136.0906 H6            1 RES     
    6360 H6         311.3387  -327.3193   135.4873 H6            1 RES     
    6361 H6         311.9030  -328.2739   134.0625 H6            1 RES     
    6362 H6         313.4389  -328.5316   135.9595 H6            1 RES     
    6363 H6         312.1031  -329.1535   136.9993 H6            1 RES     
    6364 H6         312.6550  -330.1078   135.5592 H6            1 RES     
    6365 C0         311.2462  -324.2383   130.1324 C0            1 RES     
    6366 C0         312.1486  -325.3903   130.6868 C0            1 RES     
    6367 C0         311.9206  -325.5666   132.2285 C0            1 RES     
    6368 C0         312.4943  -324.5517   133.2481 C0            1 RES     
    6369 C0         311.8689  -323.1428   133.2977 C0            1 RES     
    6370 C0         310.3434  -323.0935   133.5267 C0            1 RES     
    6371 C0         309.8871  -323.7584   134.8319 C0            1 RES     
    6372 C0         308.3760  -323.6192   135.0062 C0            1 RES     
    6373 C0         313.6831  -325.2791   130.4478 C0            1 RES     
    6374 C0         314.1233  -325.4286   129.0012 C0            1 RES     
    6375 C0         315.6440  -325.4954   128.8546 C0            1 RES     
    6376 C0         316.0071  -325.6969   127.3789 C0            1 RES     
    6377 C0         317.5255  -325.7766   127.1799 C0            1 RES     
    6378 C0         317.9214  -326.0443   125.7178 C0            1 RES     
    6379 C0         317.4966  -324.9196   124.7602 C0            1 RES     
    6380 C0         317.9724  -325.2008   123.3389 C0            1 RES     
    6381 H6         311.7367  -323.2944   130.4272 H6            1 RES     
    6382 H6         310.3131  -324.2449   130.7172 H6            1 RES     
    6383 H6         311.8064  -326.3398   130.2308 H6            1 RES     
    6384 H6         312.3984  -326.5351   132.4923 H6            1 RES     
    6385 H6         310.8440  -325.6703   132.4446 H6            1 RES     
    6386 H6         313.5909  -324.4591   133.1107 H6            1 RES     
    6387 H6         312.3520  -325.0012   134.2544 H6            1 RES     
    6388 H6         312.1133  -322.5878   132.3762 H6            1 RES     
    6389 H6         312.3615  -322.5887   134.1260 H6            1 RES     
    6390 H6         309.8061  -323.5665   132.6862 H6            1 RES     
    6391 H6         310.0448  -322.0222   133.5491 H6            1 RES     
    6392 H6         310.1344  -324.8407   134.8183 H6            1 RES     
    6393 H6         310.3977  -323.2800   135.6951 H6            1 RES     
    6394 H6         308.0887  -322.5465   135.0453 H6            1 RES     
    6395 H6         308.0604  -324.1069   135.9519 H6            1 RES     
    6396 H6         307.8428  -324.1058   134.1608 H6            1 RES     
    6397 H6         314.1651  -326.1163   131.0006 H6            1 RES     
    6398 H6         314.0727  -324.3220   130.8574 H6            1 RES     
    6399 H6         313.7142  -326.3830   128.6139 H6            1 RES     
    6400 H6         313.7607  -324.5596   128.4282 H6            1 RES     
    6401 H6         316.0986  -324.5546   129.2336 H6            1 RES     
    6402 H6         316.0381  -326.3517   129.4472 H6            1 RES     
    6403 H6         315.5440  -326.6405   127.0126 H6            1 RES     
    6404 H6         315.5926  -324.8447   126.8017 H6            1 RES     
    6405 H6         318.0005  -324.8336   127.5281 H6            1 RES     
    6406 H6         317.9205  -326.6139   127.7965 H6            1 RES     
    6407 H6         317.4771  -327.0084   125.3849 H6            1 RES     
    6408 H6         319.0286  -326.1418   125.6818 H6            1 RES     
    6409 H6         317.9328  -323.9558   125.1013 H6            1 RES     
    6410 H6         316.3911  -324.8267   124.7353 H6            1 RES     
    6411 H6         317.6524  -324.3738   122.6704 H6            1 RES     
    6412 H6         319.0803  -325.2736   123.3101 H6            1 RES     
    6413 H6         317.5326  -326.1505   122.9663 H6            1 RES     
    6414 C0         314.1492  -335.1735   122.3456 C0            1 RES     
    6415 C1         314.3750  -333.6923   122.6751 C1            1 RES     
    6416 C1         315.4863  -333.1861   122.0963 C1            1 RES     
    6417 S2         315.7036  -331.5652   122.4441 S2            1 RES     
    6418 C1         314.2836  -331.4965   123.3870 C1            1 RES     
    6419 C1         313.6583  -332.7484   123.4132 C1            1 RES     
    6420 C1         316.1133  -334.2231   121.3600 C1            1 RES     
    6421 C1         315.4090  -335.3847   121.4970 C1            1 RES     
    6422 C1         316.0025  -336.4563   120.8220 C1            1 RES     
    6423 C1         317.1991  -336.0588   120.1720 C1            1 RES     
    6424 S2         317.4668  -334.3904   120.4157 S2            1 RES     
    6425 H3         312.7373  -332.9590   123.9387 H3            1 RES     
    6426 H3         315.5890  -337.4536   120.8227 H3            1 RES     
    6427 N4         319.9810  -337.0596   117.8318 N4            1 RES     
    6428 C1         319.0690  -336.3116   118.5160 C1            1 RES     
    6429 C1         318.1608  -336.9093   119.4205 C1            1 RES     
    6430 C1         318.2542  -338.3018   119.5959 C1            1 RES     
    6431 N4         317.4941  -339.0237   120.4576 N4            1 RES     
    6432 S2         318.0823  -340.5559   120.2616 S2            1 RES     
    6433 N4         319.2728  -340.3786   119.1308 N4            1 RES     
    6434 C1         319.2310  -339.0483   118.8777 C1            1 RES     
    6435 C1         320.0841  -338.4061   117.9904 C1            1 RES     
    6436 H5         319.0504  -335.2452   118.3375 H5            1 RES     
    6437 C0         312.8511  -335.1520   121.4510 C0            1 RES     
    6438 C0         312.2372  -336.3050   120.5812 C0            1 RES     
    6439 C0         311.2967  -335.6829   119.4850 C0            1 RES     
    6440 C0         309.8821  -335.1565   119.8694 C0            1 RES     
    6441 C0         309.7607  -333.9239   120.7893 C0            1 RES     
    6442 C0         310.5011  -332.6601   120.3109 C0            1 RES     
    6443 C0         309.9805  -332.1243   118.9706 C0            1 RES     
    6444 C0         310.7114  -330.8424   118.5775 C0            1 RES     
    6445 C0         311.4292  -337.4056   121.3264 C0            1 RES     
    6446 C0         312.2537  -338.5559   121.8968 C0            1 RES     
    6447 C0         311.3607  -339.5099   122.7113 C0            1 RES     
    6448 C0         312.1677  -340.6506   123.3510 C0            1 RES     
    6449 C0         311.2974  -341.4418   124.3430 C0            1 RES     
    6450 C0         312.0834  -342.4752   125.1711 C0            1 RES     
    6451 C0         313.0879  -341.8174   126.1383 C0            1 RES     
    6452 C0         313.7698  -342.8497   127.0305 C0            1 RES     
    6453 H6         312.0534  -334.7363   122.0825 H6            1 RES     
    6454 H6         313.1106  -334.3882   120.6851 H6            1 RES     
    6455 H6         313.0608  -336.7696   119.9946 H6            1 RES     
    6456 H6         311.1029  -336.4974   118.7511 H6            1 RES     
    6457 H6         311.8403  -334.9004   118.9133 H6            1 RES     
    6458 H6         309.2948  -335.9807   120.3262 H6            1 RES     
    6459 H6         309.3678  -334.9065   118.9172 H6            1 RES     
    6460 H6         310.0891  -334.1815   121.8097 H6            1 RES     
    6461 H6         308.6813  -333.6772   120.8907 H6            1 RES     
    6462 H6         311.5868  -332.8533   120.2329 H6            1 RES     
    6463 H6         310.3555  -331.8735   121.0836 H6            1 RES     
    6464 H6         310.1375  -332.8747   118.1683 H6            1 RES     
    6465 H6         308.8937  -331.9063   119.0550 H6            1 RES     
    6466 H6         310.5614  -330.0583   119.3501 H6            1 RES     
    6467 H6         310.3147  -330.4683   117.6103 H6            1 RES     
    6468 H6         311.7993  -331.0383   118.4643 H6            1 RES     
    6469 H6         310.7464  -337.9108   120.6064 H6            1 RES     
    6470 H6         310.7981  -336.9197   122.1030 H6            1 RES     
    6471 H6         312.7610  -339.1040   121.0731 H6            1 RES     
    6472 H6         313.0118  -338.1444   122.5493 H6            1 RES     
    6473 H6         310.8909  -338.9106   123.5231 H6            1 RES     
    6474 H6         310.5541  -339.9361   122.0758 H6            1 RES     
    6475 H6         312.5832  -341.3240   122.5707 H6            1 RES     
    6476 H6         313.0170  -340.2111   123.8884 H6            1 RES     
    6477 H6         310.8049  -340.7442   125.0564 H6            1 RES     
    6478 H6         310.4991  -341.9629   123.7698 H6            1 RES     
    6479 H6         312.6031  -343.1899   124.4978 H6            1 RES     
    6480 H6         311.3452  -343.0416   125.7800 H6            1 RES     
    6481 H6         312.5544  -341.0904   126.7901 H6            1 RES     
    6482 H6         313.8792  -341.2843   125.5789 H6            1 RES     
    6483 H6         314.4768  -342.3369   127.7141 H6            1 RES     
    6484 H6         313.0162  -343.3921   127.6409 H6            1 RES     
    6485 H6         314.3366  -343.5791   126.4117 H6            1 RES     
    6486 C0         314.0147  -335.9239   123.7322 C0            1 RES     
    6487 C0         314.8415  -337.1812   124.1617 C0            1 RES     
    6488 C0         314.0297  -338.0407   125.1923 C0            1 RES     
    6489 C0         313.8569  -337.5838   126.6619 C0            1 RES     
    6490 C0         312.9545  -336.3643   126.9398 C0            1 RES     
    6491 C0         311.5128  -336.4586   126.3971 C0            1 RES     
    6492 C0         310.7181  -337.6522   126.9427 C0            1 RES     
    6493 C0         309.2908  -337.6413   126.3987 C0            1 RES     
    6494 C0         316.2572  -336.9389   124.7629 C0            1 RES     
    6495 C0         317.2914  -336.4081   123.7845 C0            1 RES     
    6496 C0         318.6981  -336.3665   124.3828 C0            1 RES     
    6497 C0         319.6898  -335.8707   123.3242 C0            1 RES     
    6498 C0         321.1197  -335.8170   123.8754 C0            1 RES     
    6499 C0         322.1499  -335.3855   122.8177 C0            1 RES     
    6500 C0         321.9181  -333.9594   122.2935 C0            1 RES     
    6501 C0         323.0040  -333.5565   121.3016 C0            1 RES     
    6502 H6         314.0937  -335.2044   124.5656 H6            1 RES     
    6503 H6         312.9527  -336.2156   123.7348 H6            1 RES     
    6504 H6         314.9619  -337.8294   123.2718 H6            1 RES     
    6505 H6         314.5654  -339.0127   125.2582 H6            1 RES     
    6506 H6         313.0220  -338.2555   124.7985 H6            1 RES     
    6507 H6         314.8511  -337.4140   127.1228 H6            1 RES     
    6508 H6         313.4121  -338.4428   127.2088 H6            1 RES     
    6509 H6         313.4273  -335.4472   126.5497 H6            1 RES     
    6510 H6         312.9015  -336.2335   128.0425 H6            1 RES     
    6511 H6         311.5127  -336.5126   125.2944 H6            1 RES     
    6512 H6         310.9878  -335.5204   126.6823 H6            1 RES     
    6513 H6         311.1971  -338.6053   126.6352 H6            1 RES     
    6514 H6         310.6840  -337.6043   128.0525 H6            1 RES     
    6515 H6         308.7682  -336.7092   126.7032 H6            1 RES     
    6516 H6         308.7295  -338.5110   126.7992 H6            1 RES     
    6517 H6         309.2996  -337.7051   125.2890 H6            1 RES     
    6518 H6         316.6425  -337.9244   125.1081 H6            1 RES     
    6519 H6         316.1962  -336.2619   125.6424 H6            1 RES     
    6520 H6         317.3254  -337.0931   122.9141 H6            1 RES     
    6521 H6         317.0114  -335.3823   123.4937 H6            1 RES     
    6522 H6         318.7108  -335.6887   125.2637 H6            1 RES     
    6523 H6         318.9943  -337.3890   124.7092 H6            1 RES     
    6524 H6         319.6649  -336.5569   122.4481 H6            1 RES     
    6525 H6         319.3701  -334.8593   122.9984 H6            1 RES     
    6526 H6         321.1628  -335.1228   124.7427 H6            1 RES     
    6527 H6         321.4020  -336.8334   124.2283 H6            1 RES     
    6528 H6         322.1323  -336.1047   121.9691 H6            1 RES     
    6529 H6         323.1557  -335.4309   123.2900 H6            1 RES     
    6530 H6         321.9252  -333.2444   123.1445 H6            1 RES     
    6531 H6         320.9407  -333.8905   121.7725 H6            1 RES     
    6532 H6         322.8116  -332.5242   120.9404 H6            1 RES     
    6533 H6         324.0015  -333.5831   121.7894 H6            1 RES     
    6534 H6         323.0037  -334.2449   120.4295 H6            1 RES     
    6535 C0         322.4560  -342.0866   114.8211 C0            1 RES     
    6536 C1         322.1612  -340.9098   115.7601 C1            1 RES     
    6537 C1         323.2576  -340.1713   116.0413 C1            1 RES     
    6538 S2         322.9145  -338.8784   117.0443 S2            1 RES     
    6539 C1         321.2572  -339.2759   117.1203 C1            1 RES     
    6540 C1         320.9974  -340.4183   116.3545 C1            1 RES     
    6541 C1         324.3644  -340.7487   115.3688 C1            1 RES     
    6542 C1         323.9671  -341.8624   114.6863 C1            1 RES     
    6543 C1         325.0268  -342.4991   114.0324 C1            1 RES     
    6544 C1         326.2537  -341.8234   114.2573 C1            1 RES     
    6545 S2         325.9876  -340.4399   115.2215 S2            1 RES     
    6546 H3         320.0197  -340.8647   116.2379 H3            1 RES     
    6547 H3         324.9023  -343.3981   113.4476 H3            1 RES     
    6548 N4         329.9155  -341.5940   113.3881 N4            1 RES     
    6549 C1         328.6505  -341.2573   113.7697 C1            1 RES     
    6550 C1         327.6151  -342.2200   113.8075 C1            1 RES     
    6551 C1         327.9533  -343.5387   113.4538 C1            1 RES     
    6552 N4         327.0949  -344.5894   113.4821 N4            1 RES     
    6553 S2         328.0562  -345.8535   113.0238 S2            1 RES     
    6554 N4         329.5342  -345.1569   112.7837 N4            1 RES     
    6555 C1         329.2889  -343.8573   113.0776 C1            1 RES     
    6556 C1         330.2583  -342.8639   113.0437 C1            1 RES     
    6557 H5         328.4566  -340.2262   114.0317 H5            1 RES     
    6558 C0         321.6966  -341.6925   113.4968 C0            1 RES     
    6559 C0         321.8036  -342.3413   112.0718 C0            1 RES     
    6560 C0         321.2995  -341.3123   110.9946 C0            1 RES     
    6561 C0         319.7753  -341.0491   110.8114 C0            1 RES     
    6562 C0         318.9857  -340.3688   111.9490 C0            1 RES     
    6563 C0         319.5352  -339.0087   112.4206 C0            1 RES     
    6564 C0         319.5221  -337.9369   111.3227 C0            1 RES     
    6565 C0         320.0229  -336.5994   111.8636 C0            1 RES     
    6566 C0         321.0429  -343.6780   111.8394 C0            1 RES     
    6567 C0         321.7944  -344.9428   112.2444 C0            1 RES     
    6568 C0         320.8952  -346.1821   112.0816 C0            1 RES     
    6569 C0         321.5998  -347.4700   112.5359 C0            1 RES     
    6570 C0         320.6063  -348.6439   112.5861 C0            1 RES     
    6571 C0         321.1871  -349.9218   113.2196 C0            1 RES     
    6572 C0         321.4977  -349.7497   114.7199 C0            1 RES     
    6573 C0         321.9600  -351.0581   115.3533 C0            1 RES     
    6574 H6         320.6327  -341.6256   113.7646 H6            1 RES     
    6575 H6         322.0669  -340.6592   113.3164 H6            1 RES     
    6576 H6         322.8826  -342.4714   111.8329 H6            1 RES     
    6577 H6         321.6353  -341.7111   110.0108 H6            1 RES     
    6578 H6         321.8311  -340.3437   111.1119 H6            1 RES     
    6579 H6         319.2641  -342.0040   110.5667 H6            1 RES     
    6580 H6         319.6708  -340.4074   109.9109 H6            1 RES     
    6581 H6         318.9005  -341.0525   112.8097 H6            1 RES     
    6582 H6         317.9410  -340.2194   111.5990 H6            1 RES     
    6583 H6         320.5628  -339.1210   112.8126 H6            1 RES     
    6584 H6         318.8930  -338.6602   113.2591 H6            1 RES     
    6585 H6         320.1783  -338.2396   110.4806 H6            1 RES     
    6586 H6         318.4850  -337.8054   110.9448 H6            1 RES     
    6587 H6         319.3774  -336.2531   112.6990 H6            1 RES     
    6588 H6         319.9980  -335.8376   111.0563 H6            1 RES     
    6589 H6         321.0679  -336.6980   112.2281 H6            1 RES     
    6590 H6         320.8721  -343.8185   110.7482 H6            1 RES     
    6591 H6         320.0463  -343.6103   112.3292 H6            1 RES     
    6592 H6         322.7176  -345.0474   111.6336 H6            1 RES     
    6593 H6         322.0819  -344.8536   113.2831 H6            1 RES     
    6594 H6         319.9977  -346.0255   112.7210 H6            1 RES     
    6595 H6         320.5617  -346.2931   111.0268 H6            1 RES     
    6596 H6         322.4542  -347.7081   111.8664 H6            1 RES     
    6597 H6         322.0091  -347.3018   113.5396 H6            1 RES     
    6598 H6         319.7074  -348.3558   113.1753 H6            1 RES     
    6599 H6         320.2762  -348.8676   111.5478 H6            1 RES     
    6600 H6         322.0968  -350.2427   112.6685 H6            1 RES     
    6601 H6         320.4183  -350.7190   113.1201 H6            1 RES     
    6602 H6         320.5821  -349.4084   115.2520 H6            1 RES     
    6603 H6         322.2998  -349.0034   114.8711 H6            1 RES     
    6604 H6         322.1656  -350.8938   116.4308 H6            1 RES     
    6605 H6         321.1714  -351.8348   115.2568 H6            1 RES     
    6606 H6         322.8913  -351.4157   114.8623 H6            1 RES     
    6607 C0         321.9281  -343.3857   115.5542 C0            1 RES     
    6608 C0         322.7669  -344.6821   115.8085 C0            1 RES     
    6609 C0         321.8245  -345.9331   115.8910 C0            1 RES     
    6610 C0         320.9409  -346.1941   117.1358 C0            1 RES     
    6611 C0         319.7447  -345.2531   117.3852 C0            1 RES     
    6612 C0         318.7381  -345.1247   116.2224 C0            1 RES     
    6613 C0         318.0957  -346.4538   115.8042 C0            1 RES     
    6614 C0         317.0772  -346.2307   114.6880 C0            1 RES     
    6615 C0         323.6909  -344.7056   117.0614 C0            1 RES     
    6616 C0         324.8837  -343.7663   117.0012 C0            1 RES     
    6617 C0         325.8488  -343.9677   118.1702 C0            1 RES     
    6618 C0         327.0467  -343.0242   118.0129 C0            1 RES     
    6619 C0         328.0492  -343.1930   119.1609 C0            1 RES     
    6620 C0         329.2957  -342.3065   118.9983 C0            1 RES     
    6621 C0         328.9767  -340.8031   119.0240 C0            1 RES     
    6622 C0         330.2508  -339.9706   118.9289 C0            1 RES     
    6623 H6         321.4723  -343.1193   116.5236 H6            1 RES     
    6624 H6         321.0685  -343.6712   114.9277 H6            1 RES     
    6625 H6         323.4040  -344.8549   114.9191 H6            1 RES     
    6626 H6         322.4955  -346.8173   115.8285 H6            1 RES     
    6627 H6         321.1623  -345.9695   115.0096 H6            1 RES     
    6628 H6         321.5735  -346.2285   118.0460 H6            1 RES     
    6629 H6         320.5243  -347.2176   117.0176 H6            1 RES     
    6630 H6         320.1055  -344.2481   117.6624 H6            1 RES     
    6631 H6         319.1992  -345.6363   118.2748 H6            1 RES     
    6632 H6         319.2189  -344.6742   115.3366 H6            1 RES     
    6633 H6         317.9353  -344.4291   116.5526 H6            1 RES     
    6634 H6         318.8714  -347.1536   115.4285 H6            1 RES     
    6635 H6         317.5834  -346.9136   116.6766 H6            1 RES     
    6636 H6         316.2698  -345.5491   115.0321 H6            1 RES     
    6637 H6         316.6236  -347.2000   114.3942 H6            1 RES     
    6638 H6         317.5712  -345.7855   113.7972 H6            1 RES     
    6639 H6         324.1153  -345.7316   117.1397 H6            1 RES     
    6640 H6         323.1033  -344.5011   117.9825 H6            1 RES     
    6641 H6         325.4457  -343.9827   116.0709 H6            1 RES     
    6642 H6         324.5187  -342.7266   117.0323 H6            1 RES     
    6643 H6         325.3247  -343.7614   119.1285 H6            1 RES     
    6644 H6         326.2120  -345.0202   118.1762 H6            1 RES     
    6645 H6         327.5600  -343.2404   117.0492 H6            1 RES     
    6646 H6         326.6654  -341.9824   117.9917 H6            1 RES     
    6647 H6         327.5536  -342.9653   120.1297 H6            1 RES     
    6648 H6         328.3875  -344.2524   119.1833 H6            1 RES     
    6649 H6         329.8115  -342.5644   118.0469 H6            1 RES     
    6650 H6         329.9847  -342.5375   119.8401 H6            1 RES     
    6651 H6         328.4517  -340.5503   119.9705 H6            1 RES     
    6652 H6         328.3277  -340.5285   118.1668 H6            1 RES     
    6653 H6         329.9908  -338.8912   118.9500 H6            1 RES     
    6654 H6         330.9215  -340.1922   119.7862 H6            1 RES     
    6655 H6         330.7844  -340.1900   117.9795 H6            1 RES     
    6656 C0         334.5508  -344.6583   110.2921 C0            1 RES     
    6657 C1         333.6150  -344.0403   111.3389 C1            1 RES     
    6658 C1         334.2779  -343.4840   112.3770 C1            1 RES     
    6659 S2         333.2450  -342.7926   113.4952 S2            1 RES     
    6660 C1         331.8594  -343.2192   112.5961 C1            1 RES     
    6661 C1         332.2290  -343.8975   111.4289 C1            1 RES     
    6662 C1         335.6676  -343.6695   112.1649 C1            1 RES     
    6663 C1         335.8749  -344.3629   111.0073 C1            1 RES     
    6664 C1         337.2298  -344.6107   110.7640 C1            1 RES     
    6665 C1         338.0455  -344.0819   111.7971 C1            1 RES     
    6666 S2         337.0748  -343.2905   112.9572 S2            1 RES     
    6667 H3         331.5305  -344.2651   110.6903 H3            1 RES     
    6668 H3         337.5829  -345.1507   109.8984 H3            1 RES     
    6669 N4         341.5591  -343.4008   112.9834 N4            1 RES     
    6670 C1         340.2119  -343.3020   112.7977 C1            1 RES     
    6671 C1         339.5202  -344.2011   111.9531 C1            1 RES     
    6672 C1         340.2792  -345.2093   111.3319 C1            1 RES     
    6673 N4         339.7670  -346.1785   110.5320 N4            1 RES     
    6674 S2         341.1018  -347.0763   110.1525 S2            1 RES     
    6675 N4         342.3294  -346.3129   110.9510 N4            1 RES     
    6676 C1         341.6815  -345.2926   111.5631 C1            1 RES     
    6677 C1         342.3067  -344.3695   112.3905 C1            1 RES     
    6678 H5         339.6862  -342.5055   113.3063 H5            1 RES     
    6679 C0         334.3559  -343.7254   109.0362 C0            1 RES     
    6680 C0         335.2086  -343.6570   107.7204 C0            1 RES     
    6681 C0         334.9810  -342.2640   107.0269 C0            1 RES     
    6682 C0         333.6646  -341.9813   106.2439 C0            1 RES     
    6683 C0         332.3301  -341.9071   107.0146 C0            1 RES     
    6684 C0         332.2867  -340.8951   108.1757 C0            1 RES     
    6685 C0         332.4866  -339.4433   107.7213 C0            1 RES     
    6686 C0         332.3766  -338.4840   108.9044 C0            1 RES     
    6687 C0         334.9604  -344.7612   106.6533 C0            1 RES     
    6688 C0         335.7457  -346.0548   106.8488 C0            1 RES     
    6689 C0         335.3238  -347.1067   105.8064 C0            1 RES     
    6690 C0         336.0525  -348.4445   106.0089 C0            1 RES     
    6691 C0         335.4423  -349.5365   105.1131 C0            1 RES     
    6692 C0         335.9845  -350.9491   105.3998 C0            1 RES     
    6693 C0         335.5780  -351.4670   106.7939 C0            1 RES     
    6694 C0         336.0239  -352.9095   107.0112 C0            1 RES     
    6695 H6         333.2969  -343.8111   108.7549 H6            1 RES     
    6696 H6         334.5105  -342.7141   109.4728 H6            1 RES     
    6697 H6         336.2837  -343.6404   108.0072 H6            1 RES     
    6698 H6         335.7868  -342.1670   106.2648 H6            1 RES     
    6699 H6         335.1654  -341.4412   107.7506 H6            1 RES     
    6700 H6         333.5489  -342.7337   105.4355 H6            1 RES     
    6701 H6         333.8031  -341.0042   105.7340 H6            1 RES     
    6702 H6         332.0528  -342.9079   107.3849 H6            1 RES     
    6703 H6         331.5304  -341.6394   106.2899 H6            1 RES     
    6704 H6         333.0447  -341.1491   108.9394 H6            1 RES     
    6705 H6         331.2868  -340.9782   108.6557 H6            1 RES     
    6706 H6         333.4893  -339.3174   107.2630 H6            1 RES     
    6707 H6         331.7097  -339.1789   106.9714 H6            1 RES     
    6708 H6         331.3757  -338.5676   109.3794 H6            1 RES     
    6709 H6         332.5165  -337.4402   108.5526 H6            1 RES     
    6710 H6         333.1582  -338.7128   109.6601 H6            1 RES     
    6711 H6         335.3079  -344.3969   105.6601 H6            1 RES     
    6712 H6         333.8658  -344.9450   106.5791 H6            1 RES     
    6713 H6         336.8364  -345.8508   106.7780 H6            1 RES     
    6714 H6         335.5347  -346.4385   107.8376 H6            1 RES     
    6715 H6         334.2310  -347.2768   105.9321 H6            1 RES     
    6716 H6         335.5066  -346.7364   104.7741 H6            1 RES     
    6717 H6         337.1398  -348.3345   105.8072 H6            1 RES     
    6718 H6         335.9441  -348.7390   107.0600 H6            1 RES     
    6719 H6         334.3384  -349.5666   105.2494 H6            1 RES     
    6720 H6         335.6479  -349.2740   104.0520 H6            1 RES     
    6721 H6         337.0895  -350.9653   105.2860 H6            1 RES     
    6722 H6         335.5446  -351.6325   104.6409 H6            1 RES     
    6723 H6         334.4710  -351.4243   106.8978 H6            1 RES     
    6724 H6         336.0372  -350.8517   107.5899 H6            1 RES     
    6725 H6         335.7070  -353.2455   108.0196 H6            1 RES     
    6726 H6         335.5606  -353.5764   106.2529 H6            1 RES     
    6727 H6         337.1310  -352.9850   106.9409 H6            1 RES     
    6728 C0         334.0872  -346.1602   110.1100 C0            1 RES     
    6729 C0         335.0202  -347.4119   110.2175 C0            1 RES     
    6730 C0         334.4591  -348.5861   109.3421 C0            1 RES     
    6731 C0         333.2208  -349.4020   109.7885 C0            1 RES     
    6732 C0         331.8462  -348.7030   109.7654 C0            1 RES     
    6733 C0         331.4299  -348.0857   108.4136 C0            1 RES     
    6734 C0         331.3621  -349.0963   107.2612 C0            1 RES     
    6735 C0         330.8932  -348.4158   105.9765 C0            1 RES     
    6736 C0         335.3011  -347.9783   111.6403 C0            1 RES     
    6737 C0         336.1455  -347.0863   112.5348 C0            1 RES     
    6738 C0         336.5402  -347.7725   113.8432 C0            1 RES     
    6739 C0         337.4293  -346.8328   114.6656 C0            1 RES     
    6740 C0         337.8579  -347.4795   115.9883 C0            1 RES     
    6741 C0         338.8052  -346.5871   116.8082 C0            1 RES     
    6742 C0         338.1583  -345.2656   117.2527 C0            1 RES     
    6743 C0         339.1139  -344.4512   118.1182 C0            1 RES     
    6744 H6         333.2141  -346.3714   110.7515 H6            1 RES     
    6745 H6         333.6701  -346.1511   109.0908 H6            1 RES     
    6746 H6         335.9954  -347.1492   109.7629 H6            1 RES     
    6747 H6         335.2821  -349.3309   109.2785 H6            1 RES     
    6748 H6         334.2635  -348.2351   108.3149 H6            1 RES     
    6749 H6         333.3952  -349.8298   110.7967 H6            1 RES     
    6750 H6         333.1503  -350.2706   109.0990 H6            1 RES     
    6751 H6         331.8048  -347.9241   110.5454 H6            1 RES     
    6752 H6         331.0830  -349.4594   110.0504 H6            1 RES     
    6753 H6         332.1190  -347.2724   108.1260 H6            1 RES     
    6754 H6         330.4230  -347.6331   108.5504 H6            1 RES     
    6755 H6         332.3656  -349.5327   107.0737 H6            1 RES     
    6756 H6         330.6535  -349.9125   107.5192 H6            1 RES     
    6757 H6         329.8797  -347.9822   106.1166 H6            1 RES     
    6758 H6         330.8520  -349.1576   105.1520 H6            1 RES     
    6759 H6         331.5971  -347.6048   105.6895 H6            1 RES     
    6760 H6         335.8825  -348.9188   111.5126 H6            1 RES     
    6761 H6         334.3481  -348.2259   112.1561 H6            1 RES     
    6762 H6         337.0829  -346.8458   111.9949 H6            1 RES     
    6763 H6         335.5663  -346.1817   112.7825 H6            1 RES     
    6764 H6         335.6265  -348.0339   114.4197 H6            1 RES     
    6765 H6         337.1051  -348.7054   113.6188 H6            1 RES     
    6766 H6         338.3383  -346.5781   114.0759 H6            1 RES     
    6767 H6         336.8575  -345.9030   114.8652 H6            1 RES     
    6768 H6         336.9594  -347.7259   116.5951 H6            1 RES     
    6769 H6         338.3957  -348.4265   115.7620 H6            1 RES     
    6770 H6         339.7210  -346.3751   116.2133 H6            1 RES     
    6771 H6         339.1046  -347.1580   117.7143 H6            1 RES     
    6772 H6         337.2377  -345.4802   117.8375 H6            1 RES     
    6773 H6         337.8898  -344.6479   116.3707 H6            1 RES     
    6774 H6         338.6212  -343.5043   118.4243 H6            1 RES     
    6775 H6         339.3885  -345.0211   119.0312 H6            1 RES     
    6776 H6         340.0352  -344.2054   117.5482 H6            1 RES     
    6777 C0         347.6515  -344.6272   111.6270 C0            1 RES     
    6778 C1         346.2426  -344.5709   112.2314 C1            1 RES     
    6779 C1         346.2488  -344.5292   113.5822 C1            1 RES     
    6780 S2         344.7073  -344.4419   114.2238 S2            1 RES     
    6781 C1         343.9799  -344.4474   112.6807 C1            1 RES     
    6782 C1         344.9596  -344.5159   111.6834 C1            1 RES     
    6783 C1         347.5971  -344.5669   114.0198 C1            1 RES     
    6784 C1         348.4345  -344.6570   112.9453 C1            1 RES     
    6785 C1         349.7803  -344.7370   113.3175 C1            1 RES     
    6786 C1         349.9287  -344.7141   114.7281 C1            1 RES     
    6787 S2         348.4000  -344.5552   115.4713 S2            1 RES     
    6788 H3         344.7503  -344.5256   110.6229 H3            1 RES     
    6789 H3         350.5847  -344.8190   112.6020 H3            1 RES     
    6790 N4         352.3328  -344.5630   117.6288 N4            1 RES     
    6791 C1         351.2112  -344.4217   116.8664 C1            1 RES     
    6792 C1         351.1791  -344.8572   115.5212 C1            1 RES     
    6793 C1         352.3456  -345.4579   115.0143 C1            1 RES     
    6794 N4         352.4681  -345.9720   113.7644 N4            1 RES     
    6795 S2         354.0088  -346.5705   113.7696 S2            1 RES     
    6796 N4         354.5608  -346.2229   115.2867 N4            1 RES     
    6797 C1         353.4924  -345.6048   115.8452 C1            1 RES     
    6798 C1         353.4679  -345.1415   117.1537 C1            1 RES     
    6799 H5         350.3467  -343.9535   117.3168 H5            1 RES     
    6800 C0         347.7927  -343.2319   110.9066 C0            1 RES     
    6801 C0         349.0800  -342.5565   110.3153 C0            1 RES     
    6802 C0         348.8445  -341.0060   110.1975 C0            1 RES     
    6803 C0         347.9597  -340.4299   109.0525 C0            1 RES     
    6804 C0         346.4489  -340.7428   109.0370 C0            1 RES     
    6805 C0         345.6775  -340.3665   110.3167 C0            1 RES     
    6806 C0         345.7000  -338.8619   110.6168 C0            1 RES     
    6807 C0         344.8736  -338.5441   111.8611 C0            1 RES     
    6808 C0         349.5787  -343.0641   108.9321 C0            1 RES     
    6809 C0         350.4892  -344.2880   108.9686 C0            1 RES     
    6810 C0         350.8132  -344.7642   107.5405 C0            1 RES     
    6811 C0         351.6819  -346.0319   107.5381 C0            1 RES     
    6812 C0         351.7886  -346.6144   106.1180 C0            1 RES     
    6813 C0         352.4764  -347.9912   106.0620 C0            1 RES     
    6814 C0         351.6524  -349.0927   106.7584 C0            1 RES     
    6815 C0         352.2926  -350.4669   106.5897 C0            1 RES     
    6816 H6         347.0073  -343.2053   110.1383 H6            1 RES     
    6817 H6         347.5020  -342.5241   111.7139 H6            1 RES     
    6818 H6         349.8935  -342.6468   111.0692 H6            1 RES     
    6819 H6         349.8490  -340.5565   110.0287 H6            1 RES     
    6820 H6         348.5028  -340.5955   111.1719 H6            1 RES     
    6821 H6         348.3806  -340.7379   108.0722 H6            1 RES     
    6822 H6         348.0649  -339.3250   109.0964 H6            1 RES     
    6823 H6         346.2873  -341.8089   108.8070 H6            1 RES     
    6824 H6         345.9944  -340.1947   108.1831 H6            1 RES     
    6825 H6         346.0759  -340.9210   111.1862 H6            1 RES     
    6826 H6         344.6200  -340.6804   110.1752 H6            1 RES     
    6827 H6         346.7407  -338.5196   110.7932 H6            1 RES     
    6828 H6         345.2768  -338.3048   109.7530 H6            1 RES     
    6829 H6         343.8174  -338.8563   111.7150 H6            1 RES     
    6830 H6         344.8971  -337.4512   112.0554 H6            1 RES     
    6831 H6         345.2901  -339.0720   112.7456 H6            1 RES     
    6832 H6         350.2173  -342.2822   108.4624 H6            1 RES     
    6833 H6         348.6976  -343.2195   108.2711 H6            1 RES     
    6834 H6         351.4236  -344.0493   109.5218 H6            1 RES     
    6835 H6         349.9762  -345.0821   109.4938 H6            1 RES     
    6836 H6         349.8455  -344.9976   107.0425 H6            1 RES     
    6837 H6         351.3231  -343.9630   106.9624 H6            1 RES     
    6838 H6         352.6912  -345.8178   107.9507 H6            1 RES     
    6839 H6         351.2108  -346.7723   108.1963 H6            1 RES     
    6840 H6         350.7735  -346.7281   105.6767 H6            1 RES     
    6841 H6         352.3563  -345.8958   105.4867 H6            1 RES     
    6842 H6         353.4939  -347.9290   106.5036 H6            1 RES     
    6843 H6         352.5766  -348.2674   104.9895 H6            1 RES     
    6844 H6         350.6311  -349.1268   106.3183 H6            1 RES     
    6845 H6         351.5694  -348.8935   107.8430 H6            1 RES     
    6846 H6         351.6675  -351.2298   107.0971 H6            1 RES     
    6847 H6         352.3683  -350.7292   105.5127 H6            1 RES     
    6848 H6         353.3076  -350.4772   107.0435 H6            1 RES     
    6849 C0         347.6808  -345.8945   110.6800 C0            1 RES     
    6850 C0         348.7478  -347.0379   110.7354 C0            1 RES     
    6851 C0         348.9083  -347.7018   109.3236 C0            1 RES     
    6852 C0         347.8308  -348.6594   108.7575 C0            1 RES     
    6853 C0         346.4736  -348.0571   108.3406 C0            1 RES     
    6854 C0         346.5371  -346.9049   107.3158 C0            1 RES     
    6855 C0         347.2074  -347.2864   105.9895 C0            1 RES     
    6856 C0         347.1814  -346.1095   105.0161 C0            1 RES     
    6857 C0         348.5237  -348.1799   111.7697 C0            1 RES     
    6858 C0         348.6696  -347.7698   113.2255 C0            1 RES     
    6859 C0         348.6221  -348.9643   114.1791 C0            1 RES     
    6860 C0         348.8264  -348.4780   115.6185 C0            1 RES     
    6861 C0         348.7929  -349.6430   116.6151 C0            1 RES     
    6862 C0         349.0604  -349.1964   118.0626 C0            1 RES     
    6863 C0         347.9924  -348.2339   118.6061 C0            1 RES     
    6864 C0         348.2662  -347.8773   120.0633 C0            1 RES     
    6865 H6         346.6959  -346.3929   110.6775 H6            1 RES     
    6866 H6         347.7469  -345.4351   109.6813 H6            1 RES     
    6867 H6         349.7303  -346.5759   110.9541 H6            1 RES     
    6868 H6         349.8313  -348.3183   109.3866 H6            1 RES     
    6869 H6         349.0901  -346.9288   108.5580 H6            1 RES     
    6870 H6         347.6568  -349.4928   109.4682 H6            1 RES     
    6871 H6         348.2684  -349.1236   107.8476 H6            1 RES     
    6872 H6         345.9211  -347.7163   109.2325 H6            1 RES     
    6873 H6         345.8657  -348.8778   107.9017 H6            1 RES     
    6874 H6         347.0679  -346.0340   107.7385 H6            1 RES     
    6875 H6         345.4918  -346.5863   107.1082 H6            1 RES     
    6876 H6         348.2674  -347.5679   106.1620 H6            1 RES     
    6877 H6         346.6727  -348.1470   105.5329 H6            1 RES     
    6878 H6         346.1334  -345.8093   104.8006 H6            1 RES     
    6879 H6         347.6717  -346.3990   104.0635 H6            1 RES     
    6880 H6         347.7254  -345.2405   105.4456 H6            1 RES     
    6881 H6         349.3094  -348.9475   111.5896 H6            1 RES     
    6882 H6         347.5310  -348.6557   111.6157 H6            1 RES     
    6883 H6         349.6607  -347.2898   113.3502 H6            1 RES     
    6884 H6         347.8435  -347.0885   113.4868 H6            1 RES     
    6885 H6         347.6412  -349.4788   114.0866 H6            1 RES     
    6886 H6         349.4326  -349.6817   113.9182 H6            1 RES     
    6887 H6         349.8104  -347.9635   115.6959 H6            1 RES     
    6888 H6         348.0211  -347.7523   115.8555 H6            1 RES     
    6889 H6         347.8089  -350.1575   116.5594 H6            1 RES     
    6890 H6         349.5840  -350.3727   116.3341 H6            1 RES     
    6891 H6         350.0627  -348.7174   118.1227 H6            1 RES     
    6892 H6         349.0730  -350.1084   118.6988 H6            1 RES     
    6893 H6         346.9908  -348.7106   118.5346 H6            1 RES     
    6894 H6         347.9855  -347.2904   118.0218 H6            1 RES     
    6895 H6         347.4807  -347.1826   120.4288 H6            1 RES     
    6896 H6         348.2539  -348.7920   120.6932 H6            1 RES     
    6897 H6         349.2547  -347.3793   120.1587 H6            1 RES     
    6898 C0         358.5228  -344.9040   119.0532 C0            1 RES     
    6899 C1         357.0219  -345.1593   118.8643 C1            1 RES     
    6900 C1         356.4439  -345.7328   119.9429 C1            1 RES     
    6901 S2         354.8041  -345.9803   119.7306 S2            1 RES     
    6902 C1         354.8250  -345.3040   118.1646 C1            1 RES     
    6903 C1         356.1206  -344.8917   117.8321 C1            1 RES     
    6904 C1         357.4450  -345.9335   120.9269 C1            1 RES     
    6905 C1         358.6542  -345.5088   120.4564 C1            1 RES     
    6906 C1         359.6910  -345.7177   121.3716 C1            1 RES     
    6907 C1         359.2163  -346.3318   122.5590 C1            1 RES     
    6908 S2         357.5275  -346.5611   122.4603 S2            1 RES     
    6909 H3         356.3903  -344.4256   116.8947 H3            1 RES     
    6910 H3         360.7170  -345.4490   121.1698 H3            1 RES     
    6911 N4         360.0492  -347.4539   126.0610 N4            1 RES     
    6912 C1         359.3594  -347.0088   124.9723 C1            1 RES     
    6913 C1         360.0060  -346.7895   123.7338 C1            1 RES     
    6914 C1         361.3831  -347.0692   123.6716 C1            1 RES     
    6915 N4         362.1430  -346.9597   122.5526 N4            1 RES     
    6916 S2         363.6291  -347.4605   123.0748 S2            1 RES     
    6917 N4         363.3846  -347.8240   124.6671 N4            1 RES     
    6918 C1         362.0672  -347.5497   124.8241 C1            1 RES     
    6919 C1         361.3801  -347.7290   126.0171 C1            1 RES     
    6920 H5         358.3016  -346.8147   125.0858 H5            1 RES     
    6921 C0         358.6204  -343.3309   119.0945 C0            1 RES     
    6922 C0         359.8355  -342.4319   119.5166 C0            1 RES     
    6923 C0         359.3112  -341.0017   119.9073 C0            1 RES     
    6924 C0         358.8874  -339.9904   118.8011 C0            1 RES     
    6925 C0         357.6485  -340.2969   117.9341 C0            1 RES     
    6926 C0         356.3418  -340.5576   118.7080 C0            1 RES     
    6927 C0         355.8764  -339.3513   119.5342 C0            1 RES     
    6928 C0         354.5506  -339.6494   120.2310 C0            1 RES     
    6929 C0         360.9791  -342.2477   118.4784 C0            1 RES     
    6930 C0         362.0500  -343.3347   118.4779 C0            1 RES     
    6931 C0         363.0525  -343.1061   117.3317 C0            1 RES     
    6932 C0         364.1137  -344.2155   117.2634 C0            1 RES     
    6933 C0         364.9484  -344.0903   115.9769 C0            1 RES     
    6934 C0         365.9002  -345.2768   115.7367 C0            1 RES     
    6935 C0         365.1465  -346.5927   115.4580 C0            1 RES     
    6936 C0         366.1041  -347.7270   115.1072 C0            1 RES     
    6937 H6         358.2541  -342.9778   118.1204 H6            1 RES     
    6938 H6         357.8554  -343.0716   119.8593 H6            1 RES     
    6939 H6         360.2476  -342.8349   120.4686 H6            1 RES     
    6940 H6         360.1536  -340.5016   120.4363 H6            1 RES     
    6941 H6         358.5014  -341.0840   120.6637 H6            1 RES     
    6942 H6         359.7445  -339.8121   118.1181 H6            1 RES     
    6943 H6         358.6980  -339.0227   119.3124 H6            1 RES     
    6944 H6         357.8583  -341.1471   117.2644 H6            1 RES     
    6945 H6         357.4836  -339.4323   117.2546 H6            1 RES     
    6946 H6         356.4525  -341.4361   119.3700 H6            1 RES     
    6947 H6         355.5526  -340.7976   117.9620 H6            1 RES     
    6948 H6         356.6294  -339.1020   120.3103 H6            1 RES     
    6949 H6         355.7410  -338.4736   118.8656 H6            1 RES     
    6950 H6         353.7641  -339.8858   119.4827 H6            1 RES     
    6951 H6         354.2289  -338.7623   120.8160 H6            1 RES     
    6952 H6         354.6644  -340.5106   120.9237 H6            1 RES     
    6953 H6         361.5506  -341.3236   118.7217 H6            1 RES     
    6954 H6         360.5268  -342.1075   117.4718 H6            1 RES     
    6955 H6         362.5747  -343.3506   119.4580 H6            1 RES     
    6956 H6         361.5675  -344.2919   118.3346 H6            1 RES     
    6957 H6         362.4740  -343.1111   116.3808 H6            1 RES     
    6958 H6         363.5530  -342.1187   117.4348 H6            1 RES     
    6959 H6         364.7695  -344.1881   118.1602 H6            1 RES     
    6960 H6         363.5987  -345.1840   117.2655 H6            1 RES     
    6961 H6         364.2758  -344.0152   115.0937 H6            1 RES     
    6962 H6         365.5415  -343.1511   116.0346 H6            1 RES     
    6963 H6         366.5869  -345.3978   116.6016 H6            1 RES     
    6964 H6         366.5088  -345.0359   114.8378 H6            1 RES     
    6965 H6         364.4492  -346.4474   114.6033 H6            1 RES     
    6966 H6         364.5661  -346.9074   116.3452 H6            1 RES     
    6967 H6         365.5238  -348.6510   114.9075 H6            1 RES     
    6968 H6         366.6898  -347.4722   114.1981 H6            1 RES     
    6969 H6         366.8006  -347.9183   115.9526 H6            1 RES     
    6970 C0         359.2517  -345.6051   117.8363 C0            1 RES     
    6971 C0         360.4320  -346.6253   117.9577 C0            1 RES     
    6972 C0         361.3295  -346.5752   116.6725 C0            1 RES     
    6973 C0         360.8561  -347.1976   115.3357 C0            1 RES     
    6974 C0         359.7042  -346.5030   114.5812 C0            1 RES     
    6975 C0         359.9209  -345.0108   114.2522 C0            1 RES     
    6976 C0         361.1602  -344.7359   113.3906 C0            1 RES     
    6977 C0         361.2710  -343.2470   113.0680 C0            1 RES     
    6978 C0         360.0686  -348.1164   118.2200 C0            1 RES     
    6979 C0         359.4806  -348.4056   119.5909 C0            1 RES     
    6980 C0         359.3181  -349.9030   119.8555 C0            1 RES     
    6981 C0         358.7698  -350.1156   121.2712 C0            1 RES     
    6982 C0         358.5944  -351.6058   121.5877 C0            1 RES     
    6983 C0         358.1074  -351.8560   123.0252 C0            1 RES     
    6984 C0         356.7148  -351.2680   123.3034 C0            1 RES     
    6985 C0         356.2506  -351.6027   124.7168 C0            1 RES     
    6986 H6         358.5107  -346.0708   117.1636 H6            1 RES     
    6987 H6         359.6242  -344.7423   117.2621 H6            1 RES     
    6988 H6         361.0878  -346.2897   118.7848 H6            1 RES     
    6989 H6         362.2557  -347.1323   116.9329 H6            1 RES     
    6990 H6         361.6296  -345.5356   116.4582 H6            1 RES     
    6991 H6         360.6005  -348.2659   115.4875 H6            1 RES     
    6992 H6         361.7351  -347.1900   114.6557 H6            1 RES     
    6993 H6         358.7618  -346.6150   115.1436 H6            1 RES     
    6994 H6         359.5545  -347.0502   113.6252 H6            1 RES     
    6995 H6         359.9981  -344.4134   115.1774 H6            1 RES     
    6996 H6         359.0201  -344.6567   113.7041 H6            1 RES     
    6997 H6         362.0800  -345.0407   113.9326 H6            1 RES     
    6998 H6         361.0915  -345.3090   112.4410 H6            1 RES     
    6999 H6         360.3756  -342.9058   112.5053 H6            1 RES     
    7000 H6         362.1727  -343.0632   112.4475 H6            1 RES     
    7001 H6         361.3575  -342.6540   114.0042 H6            1 RES     
    7002 H6         361.0139  -348.7014   118.1648 H6            1 RES     
    7003 H6         359.3798  -348.4935   117.4334 H6            1 RES     
    7004 H6         360.1793  -348.0115   120.3553 H6            1 RES     
    7005 H6         358.4859  -347.9352   119.6569 H6            1 RES     
    7006 H6         358.6227  -350.3423   119.1078 H6            1 RES     
    7007 H6         360.3075  -350.4061   119.7683 H6            1 RES     
    7008 H6         359.4744  -349.6694   122.0084 H6            1 RES     
    7009 H6         357.7932  -349.5941   121.3453 H6            1 RES     
    7010 H6         357.8807  -352.0618   120.8675 H6            1 RES     
    7011 H6         359.5783  -352.1113   121.4706 H6            1 RES     
    7012 H6         358.8437  -351.4333   123.7441 H6            1 RES     
    7013 H6         358.0650  -352.9566   123.1789 H6            1 RES     
    7014 H6         355.9835  -351.6836   122.5768 H6            1 RES     
    7015 H6         356.7326  -350.1627   123.2053 H6            1 RES     
    7016 H6         355.2441  -351.1665   124.8895 H6            1 RES     
    7017 H6         356.1899  -352.7034   124.8525 H6            1 RES     
    7018 H6         356.9553  -351.1793   125.4641 H6            1 RES     
    7019 C0         364.9334  -348.2608   130.0554 C0            1 RES     
    7020 C1         363.7631  -348.4372   129.0793 C1            1 RES     
    7021 C1         362.9365  -349.4495   129.4235 C1            1 RES     
    7022 S2         361.6528  -349.6116   128.3646 S2            1 RES     
    7023 C1         362.1752  -348.3000   127.4070 C1            1 RES     
    7024 C1         363.3502  -347.7525   127.9347 C1            1 RES     
    7025 C1         363.4410  -350.0506   130.6045 C1            1 RES     
    7026 C1         364.5963  -349.4316   130.9868 C1            1 RES     
    7027 C1         365.1631  -350.0080   132.1281 C1            1 RES     
    7028 C1         364.3903  -351.1033   132.5922 C1            1 RES     
    7029 S2         363.0112  -351.3016   131.6055 S2            1 RES     
    7030 H3         363.8731  -346.9068   127.5102 H3            1 RES     
    7031 H3         366.0813  -349.6537   132.5720 H3            1 RES     
    7032 N4         363.8979  -353.6684   135.3115 N4            1 RES     
    7033 C1         363.6516  -352.7949   134.2938 C1            1 RES     
    7034 C1         364.6902  -352.0246   133.7210 C1            1 RES     
    7035 C1         365.9862  -352.2144   134.2337 C1            1 RES     
    7036 N4         367.0991  -351.5934   133.7676 N4            1 RES     
    7037 S2         368.2947  -352.2421   134.7064 S2            1 RES     
    7038 N4         367.4915  -353.2919   135.6966 N4            1 RES     
    7039 C1         366.2088  -353.1484   135.2850 C1            1 RES     
    7040 C1         365.1446  -353.8634   135.8178 C1            1 RES     
    7041 H5         362.6332  -352.6974   133.9435 H5            1 RES     
    7042 C0         364.6272  -346.8746   130.7414 C0            1 RES     
    7043 C0         365.2960  -346.2362   132.0095 C0            1 RES     
    7044 C0         364.3321  -345.1495   132.6123 C0            1 RES     
    7045 C0         364.1911  -343.7573   131.9284 C0            1 RES     
    7046 C0         363.5496  -343.6668   130.5281 C0            1 RES     
    7047 C0         362.1415  -344.2791   130.3995 C0            1 RES     
    7048 C0         361.0974  -343.5878   131.2863 C0            1 RES     
    7049 C0         359.7142  -344.1989   131.0736 C0            1 RES     
    7050 C0         366.6920  -345.5764   131.8220 C0            1 RES     
    7051 C0         367.8862  -346.5209   131.9232 C0            1 RES     
    7052 C0         369.1943  -345.7759   131.5994 C0            1 RES     
    7053 C0         370.4141  -346.7099   131.6341 C0            1 RES     
    7054 C0         371.6597  -345.9975   131.0789 C0            1 RES     
    7055 C0         372.8753  -346.9250   130.8959 C0            1 RES     
    7056 C0         372.6479  -347.9895   129.8039 C0            1 RES     
    7057 C0         373.9031  -348.8204   129.5569 C0            1 RES     
    7058 H6         364.6368  -346.1276   129.9354 H6            1 RES     
    7059 H6         363.5726  -347.0066   131.0694 H6            1 RES     
    7060 H6         365.3476  -347.0165   132.8012 H6            1 RES     
    7061 H6         364.7246  -344.9237   133.6294 H6            1 RES     
    7062 H6         363.3230  -345.5835   132.7804 H6            1 RES     
    7063 H6         365.1875  -343.2699   131.8779 H6            1 RES     
    7064 H6         363.5786  -343.1301   132.6103 H6            1 RES     
    7065 H6         364.2194  -344.1173   129.7771 H6            1 RES     
    7066 H6         363.4886  -342.5925   130.2481 H6            1 RES     
    7067 H6         362.1659  -345.3592   130.6340 H6            1 RES     
    7068 H6         361.8257  -344.1738   129.3383 H6            1 RES     
    7069 H6         361.3665  -343.6993   132.3571 H6            1 RES     
    7070 H6         361.0544  -342.5059   131.0343 H6            1 RES     
    7071 H6         359.4009  -344.0893   130.0133 H6            1 RES     
    7072 H6         358.9739  -343.6798   131.7180 H6            1 RES     
    7073 H6         359.7242  -345.2774   131.3404 H6            1 RES     
    7074 H6         366.8684  -344.8493   132.6467 H6            1 RES     
    7075 H6         366.6909  -345.0064   130.8666 H6            1 RES     
    7076 H6         367.9323  -346.9663   132.9408 H6            1 RES     
    7077 H6         367.7531  -347.3206   131.2074 H6            1 RES     
    7078 H6         369.0938  -345.3635   130.5704 H6            1 RES     
    7079 H6         369.3531  -344.9307   132.3041 H6            1 RES     
    7080 H6         370.5998  -347.0761   132.6668 H6            1 RES     
    7081 H6         370.1935  -347.5862   131.0122 H6            1 RES     
    7082 H6         371.4293  -345.5465   130.0881 H6            1 RES     
    7083 H6         371.9302  -345.1726   131.7744 H6            1 RES     
    7084 H6         373.1368  -347.4083   131.8614 H6            1 RES     
    7085 H6         373.7314  -346.2898   130.5794 H6            1 RES     
    7086 H6         372.3670  -347.4893   128.8505 H6            1 RES     
    7087 H6         371.8390  -348.6846   130.0964 H6            1 RES     
    7088 H6         373.7005  -349.5672   128.7622 H6            1 RES     
    7089 H6         374.7401  -348.1687   129.2267 H6            1 RES     
    7090 H6         374.1981  -349.3573   130.4849 H6            1 RES     
    7091 C0         366.2535  -348.3189   129.1849 C0            1 RES     
    7092 C0         367.4756  -349.2565   129.4607 C0            1 RES     
    7093 C0         368.7935  -348.6102   128.9080 C0            1 RES     
    7094 C0         369.0953  -348.5715   127.3896 C0            1 RES     
    7095 C0         368.2442  -347.6372   126.5055 C0            1 RES     
    7096 C0         368.2185  -346.1531   126.9278 C0            1 RES     
    7097 C0         369.6017  -345.4900   126.9603 C0            1 RES     
    7098 C0         369.4816  -344.0141   127.3349 C0            1 RES     
    7099 C0         367.4012  -350.7129   128.9152 C0            1 RES     
    7100 C0         366.3742  -351.6042   129.5932 C0            1 RES     
    7101 C0         366.4758  -353.0626   129.1447 C0            1 RES     
    7102 C0         365.4463  -353.9049   129.9068 C0            1 RES     
    7103 C0         365.5129  -355.3807   129.4956 C0            1 RES     
    7104 C0         364.5366  -356.2650   130.2900 C0            1 RES     
    7105 C0         363.0621  -355.8982   130.0580 C0            1 RES     
    7106 C0         362.1360  -356.8465   130.8121 C0            1 RES     
    7107 H6         366.0024  -348.4469   128.1176 H6            1 RES     
    7108 H6         366.6176  -347.2815   129.2481 H6            1 RES     
    7109 H6         367.6176  -349.3164   130.5575 H6            1 RES     
    7110 H6         369.6244  -349.2035   129.3478 H6            1 RES     
    7111 H6         368.8995  -347.5795   129.2864 H6            1 RES     
    7112 H6         369.0615  -349.5985   126.9726 H6            1 RES     
    7113 H6         370.1501  -348.2372   127.2863 H6            1 RES     
    7114 H6         367.2088  -348.0130   126.4455 H6            1 RES     
    7115 H6         368.6494  -347.6963   125.4720 H6            1 RES     
    7116 H6         367.7512  -346.0370   127.9213 H6            1 RES     
    7117 H6         367.5801  -345.6100   126.1966 H6            1 RES     
    7118 H6         370.2476  -345.9859   127.7150 H6            1 RES     
    7119 H6         370.0811  -345.5732   125.9612 H6            1 RES     
    7120 H6         368.8572  -343.4759   126.5898 H6            1 RES     
    7121 H6         370.4891  -343.5490   127.3572 H6            1 RES     
    7122 H6         369.0187  -343.9067   128.3398 H6            1 RES     
    7123 H6         368.3895  -351.1880   129.1059 H6            1 RES     
    7124 H6         367.2230  -350.7092   127.8180 H6            1 RES     
    7125 H6         366.5664  -351.5825   130.6844 H6            1 RES     
    7126 H6         365.3654  -351.2373   129.3429 H6            1 RES     
    7127 H6         366.2901  -353.1321   128.0510 H6            1 RES     
    7128 H6         367.4968  -353.4492   129.3634 H6            1 RES     
    7129 H6         365.6428  -353.8243   130.9995 H6            1 RES     
    7130 H6         364.4377  -353.4957   129.6913 H6            1 RES     
    7131 H6         365.3035  -355.4780   128.4080 H6            1 RES     
    7132 H6         366.5423  -355.7560   129.6870 H6            1 RES     
    7133 H6         364.7741  -356.1963   131.3746 H6            1 RES     
    7134 H6         364.6959  -357.3167   129.9659 H6            1 RES     
    7135 H6         362.8304  -355.9569   128.9724 H6            1 RES     
    7136 H6         362.8565  -354.8680   130.4156 H6            1 RES     
    7137 H6         361.0797  -356.5586   130.6264 H6            1 RES     
    7138 H6         362.2870  -357.8906   130.4648 H6            1 RES     
    7139 H6         362.3338  -356.7907   131.9039 H6            1 RES     
    7140 C0         366.6609  -356.0826   140.5075 C0            1 RES     
    7141 C1         366.0948  -355.8252   139.1051 C1            1 RES     
    7142 C1         365.4670  -356.9023   138.5832 C1            1 RES     
    7143 S2         364.8337  -356.5973   137.0662 S2            1 RES     
    7144 C1         365.3849  -354.9829   137.0744 C1            1 RES     
    7145 C1         366.0572  -354.7065   138.2705 C1            1 RES     
    7146 C1         365.5493  -357.9608   139.5232 C1            1 RES     
    7147 C1         366.2492  -357.5553   140.6231 C1            1 RES     
    7148 C1         366.3969  -358.5724   141.5716 C1            1 RES     
    7149 C1         365.7850  -359.7765   141.1379 C1            1 RES     
    7150 S2         365.0462  -359.5387   139.6173 S2            1 RES     
    7151 H3         366.4933  -353.7486   138.5175 H3            1 RES     
    7152 H3         366.9264  -358.4363   142.5026 H3            1 RES     
    7153 N4         364.8100  -363.3045   142.0431 N4            1 RES     
    7154 C1         364.8193  -362.0712   141.4617 C1            1 RES     
    7155 C1         365.7868  -361.1016   141.8141 C1            1 RES     
    7156 C1         366.7464  -361.4731   142.7730 C1            1 RES     
    7157 N4         367.7690  -360.6832   143.1876 N4            1 RES     
    7158 S2         368.5692  -361.6589   144.2551 S2            1 RES     
    7159 N4         367.6966  -363.0609   144.2369 N4            1 RES     
    7160 C1         366.7165  -362.7762   143.3459 C1            1 RES     
    7161 C1         365.7306  -363.6789   142.9711 C1            1 RES     
    7162 H5         364.0551  -361.8490   140.7296 H5            1 RES     
    7163 C0         365.7726  -355.1638   141.4310 C0            1 RES     
    7164 C0         365.6668  -355.1528   142.9968 C0            1 RES     
    7165 C0         364.3105  -354.4785   143.4199 C0            1 RES     
    7166 C0         364.1467  -352.9311   143.3514 C0            1 RES     
    7167 C0         364.1593  -352.2318   141.9761 C0            1 RES     
    7168 C0         363.1292  -352.7517   140.9549 C0            1 RES     
    7169 C0         361.6763  -352.5601   141.4095 C0            1 RES     
    7170 C0         360.7034  -353.0405   140.3348 C0            1 RES     
    7171 C0         366.8092  -354.4478   143.7824 C0            1 RES     
    7172 C0         368.0340  -355.3084   144.0782 C0            1 RES     
    7173 C0         369.1372  -354.4679   144.7471 C0            1 RES     
    7174 C0         370.4102  -355.2886   145.0073 C0            1 RES     
    7175 C0         371.5648  -354.3738   145.4517 C0            1 RES     
    7176 C0         372.9250  -355.0903   145.5415 C0            1 RES     
    7177 C0         373.4429  -355.5508   144.1642 C0            1 RES     
    7178 C0         374.8418  -356.1514   144.2603 C0            1 RES     
    7179 H6         365.9457  -354.1330   141.0913 H6            1 RES     
    7180 H6         364.7434  -355.4539   141.1248 H6            1 RES     
    7181 H6         365.5612  -356.2053   143.3421 H6            1 RES     
    7182 H6         364.1679  -354.7281   144.4955 H6            1 RES     
    7183 H6         363.4607  -354.9644   142.8940 H6            1 RES     
    7184 H6         364.9228  -352.4509   143.9839 H6            1 RES     
    7185 H6         363.1730  -352.6942   143.8303 H6            1 RES     
    7186 H6         365.1704  -352.2785   141.5390 H6            1 RES     
    7187 H6         363.9695  -351.1487   142.1409 H6            1 RES     
    7188 H6         363.3077  -353.8203   140.7345 H6            1 RES     
    7189 H6         363.2789  -352.1852   140.0096 H6            1 RES     
    7190 H6         361.4833  -353.1376   142.3372 H6            1 RES     
    7191 H6         361.4885  -351.4826   141.6078 H6            1 RES     
    7192 H6         360.8538  -352.4704   139.3931 H6            1 RES     
    7193 H6         359.6596  -352.8859   140.6805 H6            1 RES     
    7194 H6         360.8552  -354.1225   140.1333 H6            1 RES     
    7195 H6         366.4404  -354.1684   144.7952 H6            1 RES     
    7196 H6         367.0784  -353.5076   143.2521 H6            1 RES     
    7197 H6         367.7481  -356.1647   144.7272 H6            1 RES     
    7198 H6         368.4117  -355.7008   143.1438 H6            1 RES     
    7199 H6         369.3883  -353.6372   144.0501 H6            1 RES     
    7200 H6         368.7759  -354.0293   145.7028 H6            1 RES     
    7201 H6         370.2210  -356.0778   145.7665 H6            1 RES     
    7202 H6         370.6898  -355.7937   144.0746 H6            1 RES     
    7203 H6         371.6770  -353.5289   144.7364 H6            1 RES     
    7204 H6         371.3098  -353.9467   146.4466 H6            1 RES     
    7205 H6         372.8584  -355.9519   146.2397 H6            1 RES     
    7206 H6         373.6563  -354.3613   145.9541 H6            1 RES     
    7207 H6         373.4834  -354.6802   143.4726 H6            1 RES     
    7208 H6         372.7773  -356.3213   143.7327 H6            1 RES     
    7209 H6         375.1798  -356.4625   143.2507 H6            1 RES     
    7210 H6         375.5584  -355.4019   144.6593 H6            1 RES     
    7211 H6         374.8333  -357.0429   144.9247 H6            1 RES     
    7212 C0         368.1975  -355.7106   140.4439 C0            1 RES     
    7213 C0         369.3710  -356.6434   140.8929 C0            1 RES     
    7214 C0         370.6034  -355.7871   141.3490 C0            1 RES     
    7215 C0         371.5026  -355.0591   140.3195 C0            1 RES     
    7216 C0         370.9122  -353.8457   139.5724 C0            1 RES     
    7217 C0         370.3578  -352.7140   140.4632 C0            1 RES     
    7218 C0         371.3948  -352.1059   141.4164 C0            1 RES     
    7219 C0         370.7800  -350.9621   142.2206 C0            1 RES     
    7220 C0         369.8837  -357.6970   139.8675 C0            1 RES     
    7221 C0         368.9105  -358.8217   139.5568 C0            1 RES     
    7222 C0         369.5363  -359.9170   138.6923 C0            1 RES     
    7223 C0         368.5136  -361.0361   138.4652 C0            1 RES     
    7224 C0         369.0971  -362.1645   137.6062 C0            1 RES     
    7225 C0         368.1171  -363.3344   137.4141 C0            1 RES     
    7226 C0         366.8402  -362.9362   136.6568 C0            1 RES     
    7227 C0         365.9364  -364.1438   136.4328 C0            1 RES     
    7228 H6         368.4617  -355.3478   139.4354 H6            1 RES     
    7229 H6         368.2423  -354.8059   141.0702 H6            1 RES     
    7230 H6         369.0437  -357.1895   141.7991 H6            1 RES     
    7231 H6         371.2837  -356.4961   141.8691 H6            1 RES     
    7232 H6         370.2904  -355.0369   142.0945 H6            1 RES     
    7233 H6         371.8941  -355.7870   139.5802 H6            1 RES     
    7234 H6         372.3885  -354.6903   140.8800 H6            1 RES     
    7235 H6         370.1224  -354.1773   138.8773 H6            1 RES     
    7236 H6         371.7190  -353.4218   138.9359 H6            1 RES     
    7237 H6         369.5001  -353.0704   141.0601 H6            1 RES     
    7238 H6         369.9813  -351.9137   139.7885 H6            1 RES     
    7239 H6         371.7565  -352.8746   142.1312 H6            1 RES     
    7240 H6         372.2576  -351.7173   140.8336 H6            1 RES     
    7241 H6         370.4229  -350.1595   141.5401 H6            1 RES     
    7242 H6         371.5402  -350.5345   142.9070 H6            1 RES     
    7243 H6         369.9235  -351.3313   142.8253 H6            1 RES     
    7244 H6         370.7792  -358.1843   140.3144 H6            1 RES     
    7245 H6         370.1930  -357.2016   138.9218 H6            1 RES     
    7246 H6         368.6100  -359.2914   140.5145 H6            1 RES     
    7247 H6         368.0482  -358.4044   139.0115 H6            1 RES     
    7248 H6         369.8550  -359.4886   137.7174 H6            1 RES     
    7249 H6         370.4273  -360.3373   139.2110 H6            1 RES     
    7250 H6         368.2021  -361.4539   139.4488 H6            1 RES     
    7251 H6         367.6266  -360.5968   137.9636 H6            1 RES     
    7252 H6         369.3990  -361.7642   136.6139 H6            1 RES     
    7253 H6         370.0044  -362.5622   138.1121 H6            1 RES     
    7254 H6         367.8478  -363.7583   138.4068 H6            1 RES     
    7255 H6         368.6438  -364.1220   136.8320 H6            1 RES     
    7256 H6         367.1126  -362.5030   135.6701 H6            1 RES     
    7257 H6         366.2639  -362.1840   137.2344 H6            1 RES     
    7258 H6         365.0239  -363.8273   135.8847 H6            1 RES     
    7259 H6         366.4639  -364.9143   135.8314 H6            1 RES     
    7260 H6         365.6324  -364.5833   137.4068 H6            1 RES     
    7261 C0         365.5917  -367.7436   146.5314 C0            1 RES     
    7262 C1         365.6313  -366.8929   145.2554 C1            1 RES     
    7263 C1         365.5605  -367.6316   144.1258 C1            1 RES     
    7264 S2         365.5788  -366.6882   142.7456 S2            1 RES     
    7265 C1         365.6731  -365.2398   143.6421 C1            1 RES     
    7266 C1         365.6870  -365.5190   145.0136 C1            1 RES     
    7267 C1         365.4849  -368.9986   144.4952 C1            1 RES     
    7268 C1         365.5330  -369.1185   145.8544 C1            1 RES     
    7269 C1         365.5011  -370.4509   146.2783 C1            1 RES     
    7270 C1         365.4368  -371.3424   145.1766 C1            1 RES     
    7271 S2         365.3805  -370.4595   143.7165 S2            1 RES     
    7272 H3         365.7354  -364.7666   145.7884 H3            1 RES     
    7273 H3         365.5360  -370.7384   147.3183 H3            1 RES     
    7274 N4         365.0393  -374.9196   144.0532 N4            1 RES     
    7275 C1         365.0011  -373.5568   144.0770 C1            1 RES     
    7276 C1         365.4662  -372.8296   145.1973 C1            1 RES     
    7277 C1         365.9859  -373.5725   146.2727 C1            1 RES     
    7278 N4         366.5155  -373.0323   147.3992 N4            1 RES     
    7279 S2         366.9932  -374.3668   148.2495 S2            1 RES     
    7280 N4         366.5719  -375.6285   147.2708 N4            1 RES     
    7281 C1         366.0262  -374.9941   146.2053 C1            1 RES     
    7282 C1         365.5385  -375.6520   145.0842 C1            1 RES     
    7283 H5         364.5914  -373.0451   143.2169 H5            1 RES     
    7284 C0         364.2052  -367.3624   147.1781 C0            1 RES     
    7285 C0         363.4454  -368.0630   148.3591 C0            1 RES     
    7286 C0         361.9205  -367.6840   148.2916 C0            1 RES     
    7287 C0         361.4388  -366.2771   148.7547 C0            1 RES     
    7288 C0         361.8675  -365.0314   147.9515 C0            1 RES     
    7289 C0         361.5247  -365.0568   146.4495 C0            1 RES     
    7290 C0         360.0168  -365.1246   146.1737 C0            1 RES     
    7291 C0         359.7372  -365.0891   144.6728 C0            1 RES     
    7292 C0         363.9423  -367.7635   149.8023 C0            1 RES     
    7293 C0         365.0914  -368.6367   150.2979 C0            1 RES     
    7294 C0         365.5714  -368.1646   151.6827 C0            1 RES     
    7295 C0         366.7682  -368.9849   152.1892 C0            1 RES     
    7296 C0         367.3708  -368.3439   153.4515 C0            1 RES     
    7297 C0         368.6913  -368.9923   153.9069 C0            1 RES     
    7298 C0         369.8380  -368.7683   152.9008 C0            1 RES     
    7299 C0         371.1620  -369.3153   153.4247 C0            1 RES     
    7300 H6         364.2557  -366.2857   147.3930 H6            1 RES     
    7301 H6         363.5050  -367.5060   146.3259 H6            1 RES     
    7302 H6         363.4567  -369.1600   148.1731 H6            1 RES     
    7303 H6         361.3986  -368.3962   148.9698 H6            1 RES     
    7304 H6         361.5169  -367.8989   147.2789 H6            1 RES     
    7305 H6         361.7342  -366.1173   149.8130 H6            1 RES     
    7306 H6         360.3284  -366.3046   148.7484 H6            1 RES     
    7307 H6         362.9475  -364.8523   148.0820 H6            1 RES     
    7308 H6         361.3743  -364.1445   148.4059 H6            1 RES     
    7309 H6         362.0282  -365.9057   145.9515 H6            1 RES     
    7310 H6         361.9220  -364.1207   145.9991 H6            1 RES     
    7311 H6         359.5915  -366.0634   146.5850 H6            1 RES     
    7312 H6         359.5124  -364.2578   146.6532 H6            1 RES     
    7313 H6         360.1329  -364.1516   144.2269 H6            1 RES     
    7314 H6         358.6418  -365.1315   144.4962 H6            1 RES     
    7315 H6         360.2125  -365.9594   144.1715 H6            1 RES     
    7316 H6         363.1237  -367.9808   150.5251 H6            1 RES     
    7317 H6         364.1792  -366.6793   149.8795 H6            1 RES     
    7318 H6         364.7696  -369.7002   150.3380 H6            1 RES     
    7319 H6         365.9113  -368.5554   149.5974 H6            1 RES     
    7320 H6         365.8892  -367.1030   151.5781 H6            1 RES     
    7321 H6         364.7458  -368.2139   152.4257 H6            1 RES     
    7322 H6         366.4682  -370.0362   152.3886 H6            1 RES     
    7323 H6         367.5285  -369.0071   151.3988 H6            1 RES     
    7324 H6         367.5716  -367.2645   153.2705 H6            1 RES     
    7325 H6         366.6241  -368.4187   154.2726 H6            1 RES     
    7326 H6         368.5414  -370.0777   154.0901 H6            1 RES     
    7327 H6         368.9817  -368.5121   154.8669 H6            1 RES     
    7328 H6         369.9601  -367.6783   152.7135 H6            1 RES     
    7329 H6         369.6227  -369.2753   151.9419 H6            1 RES     
    7330 H6         371.9599  -369.1284   152.6771 H6            1 RES     
    7331 H6         371.4406  -368.8111   154.3747 H6            1 RES     
    7332 H6         371.0844  -370.4108   153.5981 H6            1 RES     
    7333 C0         366.8728  -367.3482   147.3716 C0            1 RES     
    7334 C0         367.9291  -368.3561   147.9347 C0            1 RES     
    7335 C0         368.6086  -367.7707   149.2214 C0            1 RES     
    7336 C0         369.6582  -366.6355   149.1315 C0            1 RES     
    7337 C0         369.1712  -365.2293   148.7262 C0            1 RES     
    7338 C0         368.0396  -364.6357   149.5915 C0            1 RES     
    7339 C0         368.3964  -364.5009   151.0776 C0            1 RES     
    7340 C0         367.2460  -363.8587   151.8504 C0            1 RES     
    7341 C0         369.0628  -368.8202   146.9736 C0            1 RES     
    7342 C0         368.6118  -369.7047   145.8234 C0            1 RES     
    7343 C0         369.7858  -370.2761   145.0274 C0            1 RES     
    7344 C0         369.2548  -371.1945   143.9209 C0            1 RES     
    7345 C0         370.3974  -371.7989   143.0959 C0            1 RES     
    7346 C0         369.9009  -372.7775   142.0180 C0            1 RES     
    7347 C0         369.0122  -372.1091   140.9569 C0            1 RES     
    7348 C0         368.6047  -373.1052   139.8765 C0            1 RES     
    7349 H6         367.4455  -366.5626   146.8488 H6            1 RES     
    7350 H6         366.4310  -366.8237   148.2333 H6            1 RES     
    7351 H6         367.3882  -369.2603   148.2760 H6            1 RES     
    7352 H6         369.1506  -368.6225   149.6869 H6            1 RES     
    7353 H6         367.8403  -367.4461   149.9432 H6            1 RES     
    7354 H6         370.4871  -366.9414   148.4614 H6            1 RES     
    7355 H6         370.1065  -366.5399   150.1438 H6            1 RES     
    7356 H6         368.8551  -365.2287   147.6693 H6            1 RES     
    7357 H6         370.0456  -364.5451   148.7824 H6            1 RES     
    7358 H6         367.1217  -365.2430   149.5055 H6            1 RES     
    7359 H6         367.8070  -363.6257   149.1878 H6            1 RES     
    7360 H6         368.5916  -365.5012   151.5179 H6            1 RES     
    7361 H6         369.3052  -363.8712   151.1895 H6            1 RES     
    7362 H6         367.0322  -362.8435   151.4523 H6            1 RES     
    7363 H6         367.5171  -363.7705   152.9230 H6            1 RES     
    7364 H6         366.3287  -364.4809   151.7661 H6            1 RES     
    7365 H6         369.7712  -369.4363   147.5716 H6            1 RES     
    7366 H6         369.6168  -367.9437   146.5730 H6            1 RES     
    7367 H6         368.0543  -370.5634   146.2476 H6            1 RES     
    7368 H6         367.9907  -369.1057   145.1374 H6            1 RES     
    7369 H6         370.3763  -369.4460   144.5827 H6            1 RES     
    7370 H6         370.4440  -370.8650   145.7054 H6            1 RES     
    7371 H6         368.6644  -372.0189   144.3801 H6            1 RES     
    7372 H6         368.5884  -370.5963   143.2657 H6            1 RES     
    7373 H6         370.9873  -370.9864   142.6185 H6            1 RES     
    7374 H6         371.0698  -372.3615   143.7804 H6            1 RES     
    7375 H6         369.3449  -373.6105   142.5025 H6            1 RES     
    7376 H6         370.7954  -373.2045   141.5139 H6            1 RES     
    7377 H6         369.5661  -371.2704   140.4822 H6            1 RES     
    7378 H6         368.0847  -371.7129   141.4198 H6            1 RES     
    7379 H6         367.9650  -372.5960   139.1251 H6            1 RES     
    7380 H6         369.5040  -373.5083   139.3642 H6            1 RES     
    7381 H6         368.0301  -373.9445   140.3234 H6            1 RES     
    7382 C0         364.8718  -380.8893   146.2430 C0            1 RES     
    7383 C1         365.2460  -379.5529   145.5892 C1            1 RES     
    7384 C1         365.8392  -379.7024   144.3841 C1            1 RES     
    7385 S2         366.2169  -378.2367   143.6739 S2            1 RES     
    7386 C1         365.5744  -377.3485   144.9811 C1            1 RES     
    7387 C1         365.0707  -378.2172   145.9561 C1            1 RES     
    7388 C1         365.9412  -381.0900   144.1103 C1            1 RES     
    7389 C1         365.4347  -381.8104   145.1536 C1            1 RES     
    7390 C1         365.5436  -383.1908   144.9571 C1            1 RES     
    7391 C1         366.1670  -383.4890   143.7183 C1            1 RES     
    7392 S2         366.5279  -382.0429   142.8857 S2            1 RES     
    7393 H3         364.6052  -377.8957   146.8773 H3            1 RES     
    7394 H3         365.2009  -383.9167   145.6791 H3            1 RES     
    7395 N4         367.1469  -386.1796   141.2652 N4            1 RES     
    7396 C1         366.7795  -384.9761   141.7906 C1            1 RES     
    7397 C1         366.5374  -384.8237   143.1756 C1            1 RES     
    7398 C1         366.7115  -385.9606   143.9854 C1            1 RES     
    7399 N4         366.5675  -385.9762   145.3346 N4            1 RES     
    7400 S2         366.9410  -387.5396   145.7195 S2            1 RES     
    7401 N4         367.2883  -388.2317   144.2608 N4            1 RES     
    7402 C1         367.1132  -387.1967   143.4043 C1            1 RES     
    7403 C1         367.3195  -387.2875   142.0344 C1            1 RES     
    7404 H5         366.6652  -384.1403   141.1140 H5            1 RES     
    7405 C0         363.2954  -380.8735   146.2234 C0            1 RES     
    7406 C0         362.2966  -382.0495   146.5104 C0            1 RES     
    7407 C0         360.9030  -381.7160   145.8624 C0            1 RES     
    7408 C0         359.9511  -380.6819   146.5337 C0            1 RES     
    7409 C0         360.3706  -379.1983   146.5921 C0            1 RES     
    7410 C0         360.7148  -378.5495   145.2375 C0            1 RES     
    7411 C0         359.5306  -378.5197   144.2622 C0            1 RES     
    7412 C0         359.9152  -377.8157   142.9627 C0            1 RES     
    7413 C0         362.0469  -382.4238   147.9994 C0            1 RES     
    7414 C0         363.0479  -383.4003   148.6101 C0            1 RES     
    7415 C0         362.7671  -383.5946   150.1116 C0            1 RES     
    7416 C0         363.7926  -384.5277   150.7744 C0            1 RES     
    7417 C0         363.6308  -384.5132   152.3045 C0            1 RES     
    7418 C0         364.7452  -385.2671   153.0536 C0            1 RES     
    7419 C0         366.1209  -384.5862   152.9081 C0            1 RES     
    7420 C0         367.1853  -385.2806   153.7517 C0            1 RES     
    7421 H6         362.9923  -380.0095   146.8313 H6            1 RES     
    7422 H6         363.0795  -380.6322   145.1592 H6            1 RES     
    7423 H6         362.6462  -382.9434   145.9473 H6            1 RES     
    7424 H6         360.3284  -382.6696   145.8663 H6            1 RES     
    7425 H6         361.0314  -381.4588   144.7891 H6            1 RES     
    7426 H6         359.7219  -381.0112   147.5690 H6            1 RES     
    7427 H6         358.9903  -380.7290   145.9785 H6            1 RES     
    7428 H6         361.2161  -379.0729   147.2884 H6            1 RES     
    7429 H6         359.5360  -378.6242   147.0506 H6            1 RES     
    7430 H6         361.5679  -379.0697   144.7645 H6            1 RES     
    7431 H6         361.0307  -377.5021   145.4381 H6            1 RES     
    7432 H6         359.2076  -379.5525   144.0163 H6            1 RES     
    7433 H6         358.6804  -377.9752   144.7272 H6            1 RES     
    7434 H6         360.2274  -376.7691   143.1666 H6            1 RES     
    7435 H6         359.0433  -377.7986   142.2755 H6            1 RES     
    7436 H6         360.7501  -378.3541   142.4651 H6            1 RES     
    7437 H6         361.0765  -382.9631   148.0847 H6            1 RES     
    7438 H6         361.9633  -381.4866   148.5928 H6            1 RES     
    7439 H6         363.0025  -384.3740   148.0754 H6            1 RES     
    7440 H6         364.0423  -382.9923   148.4905 H6            1 RES     
    7441 H6         362.8369  -382.5934   150.5931 H6            1 RES     
    7442 H6         361.7421  -383.9933   150.2741 H6            1 RES     
    7443 H6         363.6957  -385.5620   150.3799 H6            1 RES     
    7444 H6         364.7977  -384.1727   150.5154 H6            1 RES     
    7445 H6         363.6266  -383.4644   152.6761 H6            1 RES     
    7446 H6         362.6477  -384.9682   152.5567 H6            1 RES     
    7447 H6         364.7945  -386.3212   152.7062 H6            1 RES     
    7448 H6         364.4773  -385.2665   154.1328 H6            1 RES     
    7449 H6         366.0480  -383.5269   153.2406 H6            1 RES     
    7450 H6         366.4605  -384.6096   151.8559 H6            1 RES     
    7451 H6         368.1553  -384.7577   153.6251 H6            1 RES     
    7452 H6         366.9055  -385.2543   154.8266 H6            1 RES     
    7453 H6         367.3043  -386.3376   153.4278 H6            1 RES     
    7454 C0         365.5403  -380.8874   147.6771 C0            1 RES     
    7455 C0         366.4637  -382.0167   148.2438 C0            1 RES     
    7456 C0         366.3719  -382.0611   149.8089 C0            1 RES     
    7457 C0         367.0572  -380.9843   150.6860 C0            1 RES     
    7458 C0         366.4696  -379.5583   150.6733 C0            1 RES     
    7459 C0         364.9725  -379.4461   151.0308 C0            1 RES     
    7460 C0         364.6213  -379.9898   152.4218 C0            1 RES     
    7461 C0         363.1355  -379.7929   152.7164 C0            1 RES     
    7462 C0         367.9724  -381.9700   147.8621 C0            1 RES     
    7463 C0         368.2770  -382.2488   146.3998 C0            1 RES     
    7464 C0         369.7765  -382.3715   146.1258 C0            1 RES     
    7465 C0         370.0005  -382.7022   144.6458 C0            1 RES     
    7466 C0         371.4927  -382.8419   144.3212 C0            1 RES     
    7467 C0         371.7492  -383.2384   142.8572 C0            1 RES     
    7468 C0         371.2644  -382.1829   141.8505 C0            1 RES     
    7469 C0         371.6038  -382.5918   140.4212 C0            1 RES     
    7470 H6         366.0759  -379.9375   147.8481 H6            1 RES     
    7471 H6         364.6638  -380.8195   148.3404 H6            1 RES     
    7472 H6         366.0611  -382.9896   147.9001 H6            1 RES     
    7473 H6         366.8503  -383.0186   150.1091 H6            1 RES     
    7474 H6         365.3170  -382.1155   150.1268 H6            1 RES     
    7475 H6         368.1386  -380.9350   150.4454 H6            1 RES     
    7476 H6         366.9964  -381.3466   151.7348 H6            1 RES     
    7477 H6         366.6420  -379.0870   149.6909 H6            1 RES     
    7478 H6         367.0470  -378.9537   151.4060 H6            1 RES     
    7479 H6         364.3514  -379.9697   150.2832 H6            1 RES     
    7480 H6         364.7006  -378.3683   150.9903 H6            1 RES     
    7481 H6         364.8427  -381.0764   152.4766 H6            1 RES     
    7482 H6         365.2180  -379.4582   153.1940 H6            1 RES     
    7483 H6         362.8764  -378.7126   152.6914 H6            1 RES     
    7484 H6         362.8959  -380.1931   153.7235 H6            1 RES     
    7485 H6         362.5178  -380.3305   151.9647 H6            1 RES     
    7486 H6         368.4839  -382.7735   148.4380 H6            1 RES     
    7487 H6         368.4182  -380.9947   148.1548 H6            1 RES     
    7488 H6         367.8139  -383.2189   146.1307 H6            1 RES     
    7489 H6         367.8833  -381.4187   145.7907 H6            1 RES     
    7490 H6         370.2838  -381.4168   146.3838 H6            1 RES     
    7491 H6         370.2036  -383.1882   146.7506 H6            1 RES     
    7492 H6         369.4857  -383.6583   144.4014 H6            1 RES     
    7493 H6         369.5544  -381.8877   144.0385 H6            1 RES     
    7494 H6         372.0176  -381.8881   144.5466 H6            1 RES     
    7495 H6         371.9233  -383.6377   144.9681 H6            1 RES     
    7496 H6         371.2557  -384.2129   142.6460 H6            1 RES     
    7497 H6         372.8462  -383.3707   142.7320 H6            1 RES     
    7498 H6         371.7505  -381.2078   142.0707 H6            1 RES     
    7499 H6         370.1634  -382.0600   141.9155 H6            1 RES     
    7500 H6         371.2429  -381.8126   139.7171 H6            1 RES     
    7501 H6         372.7028  -382.6989   140.3011 H6            1 RES     
    7502 H6         371.1116  -383.5553   140.1690 H6            1 RES     
    7503 C0         367.4898  -392.4964   140.6010 C0            1 RES     
    7504 C1         367.7767  -391.0006   140.7850 C1            1 RES     
    7505 C1         368.8421  -390.5755   140.0705 C1            1 RES     
    7506 S2         369.1252  -388.9388   140.2618 S2            1 RES     
    7507 C1         367.7978  -388.7527   141.3172 C1            1 RES     
    7508 C1         367.1503  -389.9796   141.5023 C1            1 RES     
    7509 C1         369.3773  -391.6865   139.3706 C1            1 RES     
    7510 C1         368.6631  -392.8122   139.6651 C1            1 RES     
    7511 C1         369.1697  -393.9517   139.0319 C1            1 RES     
    7512 C1         370.3112  -393.6431   138.2483 C1            1 RES     
    7513 S2         370.6362  -391.9690   138.3279 S2            1 RES     
    7514 H3         366.2761  -390.1201   142.1226 H3            1 RES     
    7515 H3         368.7363  -394.9332   139.1520 H3            1 RES     
    7516 N4         372.8482  -394.9105   135.7635 N4            1 RES     
    7517 C1         372.0182  -394.0834   136.4608 C1            1 RES     
    7518 C1         371.1824  -394.5793   137.4883 C1            1 RES     
    7519 C1         371.2609  -395.9552   137.7699 C1            1 RES     
    7520 N4         370.5660  -396.5826   138.7523 N4            1 RES     
    7521 S2         371.1005  -398.1421   138.6332 S2            1 RES     
    7522 N4         372.1877  -398.0916   137.3911 N4            1 RES     
    7523 C1         372.1524  -396.7854   137.0331 C1            1 RES     
    7524 C1         372.9357  -396.2422   136.0238 C1            1 RES     
    7525 H5         372.0069  -393.0348   136.1966 H5            1 RES     
    7526 C0         366.1171  -392.5094   139.8255 C0            1 RES     
    7527 C0         365.4023  -393.7106   139.1120 C0            1 RES     
    7528 C0         364.3806  -393.1520   138.0550 C0            1 RES     
    7529 C0         363.0182  -392.5552   138.5174 C0            1 RES     
    7530 C0         363.0072  -391.2492   139.3388 C0            1 RES     
    7531 C0         363.7288  -390.0504   138.6936 C0            1 RES     
    7532 C0         363.1013  -389.6098   137.3645 C0            1 RES     
    7533 C0         363.8216  -388.3857   136.8034 C0            1 RES     
    7534 C0         364.6409  -394.7233   140.0143 C0            1 RES     
    7535 C0         365.4882  -395.8473   140.6036 C0            1 RES     
    7536 C0         364.6517  -396.7059   141.5700 C0            1 RES     
    7537 C0         365.4879  -397.8142   142.2288 C0            1 RES     
    7538 C0         364.6936  -398.4969   143.3558 C0            1 RES     
    7539 C0         365.5283  -399.4824   144.1946 C0            1 RES     
    7540 C0         366.6301  -398.7781   145.0115 C0            1 RES     
    7541 C0         367.3669  -399.7544   145.9229 C0            1 RES     
    7542 H6         365.3889  -392.0209   140.4880 H6            1 RES     
    7543 H6         366.3231  -391.8180   138.9788 H6            1 RES     
    7544 H6         366.1593  -394.2449   138.4958 H6            1 RES     
    7545 H6         364.1036  -394.0171   137.4113 H6            1 RES     
    7546 H6         364.8873  -392.4344   137.3745 H6            1 RES     
    7547 H6         362.4567  -393.3223   139.0911 H6            1 RES     
    7548 H6         362.4257  -392.3681   137.5967 H6            1 RES     
    7549 H6         363.4205  -391.4330   140.3442 H6            1 RES     
    7550 H6         361.9470  -390.9638   139.5140 H6            1 RES     
    7551 H6         364.7986  -390.2809   138.5367 H6            1 RES     
    7552 H6         363.6707  -389.2000   139.4081 H6            1 RES     
    7553 H6         363.1689  -390.4268   136.6167 H6            1 RES     
    7554 H6         362.0316  -389.3540   137.5259 H6            1 RES     
    7555 H6         363.7590  -387.5376   137.5183 H6            1 RES     
    7556 H6         363.3476  -388.0796   135.8471 H6            1 RES     
    7557 H6         364.8903  -388.6217   136.6114 H6            1 RES     
    7558 H6         363.8851  -395.2649   139.4018 H6            1 RES     
    7559 H6         364.0932  -394.1580   140.8004 H6            1 RES     
    7560 H6         365.9070  -396.4747   139.7869 H6            1 RES     
    7561 H6         366.3108  -395.4067   141.1503 H6            1 RES     
    7562 H6         364.2702  -396.0294   142.3675 H6            1 RES     
    7563 H6         363.7819  -397.1584   141.0457 H6            1 RES     
    7564 H6         365.8166  -398.5603   141.4736 H6            1 RES     
    7565 H6         366.3916  -397.3576   142.6509 H6            1 RES     
    7566 H6         364.2828  -397.7298   144.0495 H6            1 RES     
    7567 H6         363.8357  -399.0391   142.9006 H6            1 RES     
    7568 H6         365.9694  -400.2640   143.5398 H6            1 RES     
    7569 H6         364.8359  -399.9759   144.9111 H6            1 RES     
    7570 H6         366.1735  -397.9856   145.6450 H6            1 RES     
    7571 H6         367.3791  -398.3154   144.3422 H6            1 RES     
    7572 H6         368.1438  -399.2088   146.4965 H6            1 RES     
    7573 H6         366.6598  -400.2234   146.6402 H6            1 RES     
    7574 H6         367.8596  -400.5477   145.3193 H6            1 RES     
    7575 C0         367.4646  -393.1280   142.0515 C0            1 RES     
    7576 C0         368.2991  -394.3700   142.5096 C0            1 RES     
    7577 C0         367.5650  -395.1194   143.6755 C0            1 RES     
    7578 C0         367.5354  -394.5403   145.1116 C0            1 RES     
    7579 C0         366.6885  -393.2765   145.3656 C0            1 RES     
    7580 C0         365.2021  -393.3724   144.9616 C0            1 RES     
    7581 C0         364.4339  -394.4941   145.6725 C0            1 RES     
    7582 C0         362.9640  -394.4857   145.2573 C0            1 RES     
    7583 C0         369.7682  -394.1213   142.9615 C0            1 RES     
    7584 C0         370.7213  -393.7017   141.8551 C0            1 RES     
    7585 C0         372.1768  -393.6530   142.3217 C0            1 RES     
    7586 C0         373.0795  -393.2735   141.1423 C0            1 RES     
    7587 C0         374.5542  -393.2172   141.5590 C0            1 RES     
    7588 C0         375.4940  -392.9028   140.3825 C0            1 RES     
    7589 C0         375.2470  -391.5176   139.7640 C0            1 RES     
    7590 C0         376.2476  -391.2281   138.6502 C0            1 RES     
    7591 H6         367.6341  -392.3461   142.8121 H6            1 RES     
    7592 H6         366.4011  -393.3874   142.1720 H6            1 RES     
    7593 H6         368.3245  -395.0912   141.6695 H6            1 RES     
    7594 H6         368.0830  -396.0981   143.7746 H6            1 RES     
    7595 H6         366.5214  -395.3358   143.3913 H6            1 RES     
    7596 H6         368.5706  -394.3629   145.4674 H6            1 RES     
    7597 H6         367.1231  -395.3389   145.7651 H6            1 RES     
    7598 H6         367.1442  -392.4081   144.8604 H6            1 RES     
    7599 H6         366.7381  -393.0556   146.4539 H6            1 RES     
    7600 H6         365.1013  -393.5153   143.8715 H6            1 RES     
    7601 H6         364.7256  -392.3992   145.2131 H6            1 RES     
    7602 H6         364.8624  -395.4826   145.4043 H6            1 RES     
    7603 H6         364.5011  -394.3557   146.7731 H6            1 RES     
    7604 H6         362.4915  -393.5171   145.5281 H6            1 RES     
    7605 H6         362.4223  -395.3034   145.7766 H6            1 RES     
    7606 H6         362.8713  -394.6392   144.1603 H6            1 RES     
    7607 H6         370.1615  -395.0865   143.3521 H6            1 RES     
    7608 H6         369.8015  -393.3739   143.7836 H6            1 RES     
    7609 H6         370.6616  -394.4556   141.0450 H6            1 RES     
    7610 H6         370.4387  -392.6951   141.5058 H6            1 RES     
    7611 H6         372.2836  -392.9069   143.1386 H6            1 RES     
    7612 H6         372.4788  -394.6539   142.7046 H6            1 RES     
    7613 H6         372.9608  -394.0272   140.3318 H6            1 RES     
    7614 H6         372.7540  -392.2828   140.7629 H6            1 RES     
    7615 H6         374.6904  -392.4567   142.3585 H6            1 RES     
    7616 H6         374.8449  -394.2095   141.9690 H6            1 RES     
    7617 H6         375.3842  -393.6875   139.6015 H6            1 RES     
    7618 H6         376.5370  -392.9392   140.7665 H6            1 RES     
    7619 H6         375.3465  -390.7366   140.5487 H6            1 RES     
    7620 H6         374.2283  -391.4626   139.3272 H6            1 RES     
    7621 H6         376.0460  -390.2232   138.2229 H6            1 RES     
    7622 H6         377.2842  -391.2442   139.0489 H6            1 RES     
    7623 H6         376.1536  -391.9844   137.8419 H6            1 RES     
    7624 C0         374.9313  -400.2345   132.9748 C0            1 RES     
    7625 C1         374.7482  -398.9775   133.8350 C1            1 RES     
    7626 C1         375.8813  -398.2510   133.9562 C1            1 RES     
    7627 S2         375.6584  -396.8718   134.8746 S2            1 RES     
    7628 C1         374.0064  -397.2134   135.1290 C1            1 RES     
    7629 C1         373.6537  -398.4058   134.4867 C1            1 RES     
    7630 C1         376.9101  -398.9129   133.2392 C1            1 RES     
    7631 C1         376.4286  -400.0661   132.6893 C1            1 RES     
    7632 C1         377.4109  -400.7842   131.9997 C1            1 RES     
    7633 C1         378.6675  -400.1286   132.0587 C1            1 RES     
    7634 S2         378.5197  -398.6645   132.9243 S2            1 RES     
    7635 H3         372.6600  -398.8315   134.4942 H3            1 RES     
    7636 H3         377.2146  -401.7235   131.5050 H3            1 RES     
    7637 N4         382.2401  -400.0772   130.8544 N4            1 RES     
    7638 C1         381.0224  -399.6739   131.3166 C1            1 RES     
    7639 C1         379.9738  -400.5998   131.5253 C1            1 RES     
    7640 C1         380.2498  -401.9522   131.2541 C1            1 RES     
    7641 N4         379.3748  -402.9716   131.4451 N4            1 RES     
    7642 S2         380.2630  -404.2961   131.0106 S2            1 RES     
    7643 N4         381.7282  -403.6646   130.5842 N4            1 RES     
    7644 C1         381.5389  -402.3389   130.7894 C1            1 RES     
    7645 C1         382.5227  -401.3802   130.5878 C1            1 RES     
    7646 H5         380.8754  -398.6198   131.5080 H5            1 RES     
    7647 C0         374.0643  -399.9267   131.6944 C0            1 RES     
    7648 C0         374.0282  -400.6915   130.3244 C0            1 RES     
    7649 C0         373.4516  -399.7387   129.2140 C0            1 RES     
    7650 C0         371.9232  -399.4468   129.1445 C0            1 RES     
    7651 C0         371.2545  -398.6540   130.2868 C0            1 RES     
    7652 C0         371.8738  -397.2769   130.5934 C0            1 RES     
    7653 C0         371.7851  -396.2974   129.4157 C0            1 RES     
    7654 C0         372.3618  -394.9358   129.7973 C0            1 RES     
    7655 C0         373.2207  -402.0199   130.2719 C0            1 RES     
    7656 C0         373.9779  -403.2691   130.7128 C0            1 RES     
    7657 C0         373.0408  -404.4908   130.7333 C0            1 RES     
    7658 C0         373.7552  -405.7578   131.2294 C0            1 RES     
    7659 C0         372.7449  -406.8942   131.4643 C0            1 RES     
    7660 C0         373.3524  -408.1332   132.1481 C0            1 RES     
    7661 C0         373.8007  -407.8495   133.5958 C0            1 RES     
    7662 C0         374.2895  -409.1153   134.2926 C0            1 RES     
    7663 H6         373.0307  -399.8074   132.0484 H6            1 RES     
    7664 H6         374.4393  -398.9227   131.3968 H6            1 RES     
    7665 H6         375.0782  -400.8719   130.0030 H6            1 RES     
    7666 H6         373.6885  -400.2253   128.2410 H6            1 RES     
    7667 H6         374.0126  -398.7796   129.2031 H6            1 RES     
    7668 H6         371.3713  -400.4030   129.0260 H6            1 RES     
    7669 H6         371.7519  -398.8772   128.2065 H6            1 RES     
    7670 H6         371.2324  -399.2631   131.2054 H6            1 RES     
    7671 H6         370.1859  -398.5030   130.0189 H6            1 RES     
    7672 H6         372.9298  -397.3870   130.9014 H6            1 RES     
    7673 H6         371.3176  -396.8431   131.4533 H6            1 RES     
    7674 H6         372.3560  -396.6862   128.5471 H6            1 RES     
    7675 H6         370.7213  -396.1667   129.1209 H6            1 RES     
    7676 H6         371.8020  -394.5043   130.6545 H6            1 RES     
    7677 H6         372.2808  -394.2413   128.9348 H6            1 RES     
    7678 H6         373.4330  -395.0350   130.0752 H6            1 RES     
    7679 H6         372.9491  -402.2430   129.2154 H6            1 RES     
    7680 H6         372.2740  -401.8837   130.8401 H6            1 RES     
    7681 H6         374.8396  -403.4496   130.0339 H6            1 RES     
    7682 H6         374.3597  -403.1047   131.7111 H6            1 RES     
    7683 H6         372.2082  -404.2569   131.4341 H6            1 RES     
    7684 H6         372.6111  -404.6770   129.7249 H6            1 RES     
    7685 H6         374.5403  -406.0740   130.5093 H6            1 RES     
    7686 H6         374.2569  -405.5209   132.1757 H6            1 RES     
    7687 H6         371.9093  -406.5334   132.1043 H6            1 RES     
    7688 H6         372.3176  -407.1914   130.4813 H6            1 RES     
    7689 H6         374.2015  -408.5240   131.5477 H6            1 RES     
    7690 H6         372.5605  -408.9131   132.1834 H6            1 RES     
    7691 H6         372.9445  -407.4397   134.1763 H6            1 RES     
    7692 H6         374.6292  -407.1171   133.6131 H6            1 RES     
    7693 H6         374.5950  -408.8705   135.3304 H6            1 RES     
    7694 H6         373.4787  -409.8740   134.3308 H6            1 RES     
    7695 H6         375.1647  -409.5384   133.7529 H6            1 RES     
    7696 C0         374.4434  -401.4542   133.8570 C0            1 RES     
    7697 C0         375.2733  -402.7497   134.1433 C0            1 RES     
    7698 C0         374.3150  -403.9618   134.4122 C0            1 RES     
    7699 C0         373.5418  -404.0955   135.7474 C0            1 RES     
    7700 C0         372.3938  -403.1029   136.0221 C0            1 RES     
    7701 C0         371.2895  -403.0396   134.9459 C0            1 RES     
    7702 C0         370.5832  -404.3788   134.6978 C0            1 RES     
    7703 C0         369.4733  -404.2171   133.6609 C0            1 RES     
    7704 C0         376.3058  -402.6987   135.3075 C0            1 RES     
    7705 C0         377.5084  -401.8025   135.0646 C0            1 RES     
    7706 C0         378.5704  -401.9369   136.1568 C0            1 RES     
    7707 C0         379.7696  -401.0445   135.8167 C0            1 RES     
    7708 C0         380.8676  -401.1491   136.8819 C0            1 RES     
    7709 C0         382.1134  -400.3154   136.5371 C0            1 RES     
    7710 C0         381.8309  -398.8062   136.4657 C0            1 RES     
    7711 C0         383.1092  -398.0216   136.1899 C0            1 RES     
    7712 H6         374.0829  -401.0971   134.8372 H6            1 RES     
    7713 H6         373.5248  -401.7642   133.3346 H6            1 RES     
    7714 H6         375.8236  -403.0123   133.2187 H6            1 RES     
    7715 H6         374.9582  -404.8674   134.3645 H6            1 RES     
    7716 H6         373.5754  -404.0500   133.5986 H6            1 RES     
    7717 H6         374.2530  -404.0746   136.5980 H6            1 RES     
    7718 H6         373.0940  -405.1126   135.7518 H6            1 RES     
    7719 H6         372.7999  -402.0898   136.1819 H6            1 RES     
    7720 H6         371.9225  -403.3969   136.9850 H6            1 RES     
    7721 H6         371.6982  -402.6764   133.9867 H6            1 RES     
    7722 H6         370.5351  -402.2965   135.2865 H6            1 RES     
    7723 H6         371.3063  -405.1291   134.3147 H6            1 RES     
    7724 H6         370.1417  -404.7516   135.6471 H6            1 RES     
    7725 H6         368.7152  -403.4867   134.0169 H6            1 RES     
    7726 H6         368.9739  -405.1934   133.4899 H6            1 RES     
    7727 H6         369.8945  -403.8600   132.6962 H6            1 RES     
    7728 H6         376.7129  -403.7270   135.4332 H6            1 RES     
    7729 H6         375.8082  -402.4033   136.2566 H6            1 RES     
    7730 H6         377.9794  -402.1098   134.1097 H6            1 RES     
    7731 H6         377.1706  -400.7536   135.0412 H6            1 RES     
    7732 H6         378.1395  -401.6385   137.1370 H6            1 RES     
    7733 H6         378.9096  -402.9956   136.2182 H6            1 RES     
    7734 H6         380.1891  -401.3528   134.8328 H6            1 RES     
    7735 H6         379.4107  -399.9971   135.7427 H6            1 RES     
    7736 H6         380.4664  -400.8294   137.8684 H6            1 RES     
    7737 H6         381.1833  -402.2126   136.9624 H6            1 RES     
    7738 H6         382.5356  -400.6643   135.5687 H6            1 RES     
    7739 H6         382.8703  -400.4976   137.3312 H6            1 RES     
    7740 H6         381.3991  -398.4625   137.4305 H6            1 RES     
    7741 H6         381.1134  -398.5829   135.6492 H6            1 RES     
    7742 H6         382.8757  -396.9369   136.1440 H6            1 RES     
    7743 H6         383.8494  -398.1926   137.0002 H6            1 RES     
    7744 H6         383.5500  -398.3325   135.2187 H6            1 RES     
    7745 C0         386.5094  -403.5156   127.6276 C0            1 RES     
    7746 C1         385.6855  -402.7880   128.6978 C1            1 RES     
    7747 C1         386.4513  -402.1692   129.6236 C1            1 RES     
    7748 S2         385.5388  -401.3598   130.7671 S2            1 RES     
    7749 C1         384.0687  -401.8171   130.0321 C1            1 RES     
    7750 C1         384.3167  -402.5980   128.8973 C1            1 RES     
    7751 C1         387.8118  -402.4116   129.3060 C1            1 RES     
    7752 C1         387.8987  -403.2021   128.1963 C1            1 RES     
    7753 C1         389.2203  -403.5082   127.8561 C1            1 RES     
    7754 C1         390.1373  -402.9217   128.7658 C1            1 RES     
    7755 S2         389.2927  -402.0110   129.9371 S2            1 RES     
    7756 H3         383.5466  -403.0036   128.2562 H3            1 RES     
    7757 H3         389.4821  -404.1265   127.0106 H3            1 RES     
    7758 N4         393.7576  -402.2496   129.5773 N4            1 RES     
    7759 C1         392.4016  -402.1269   129.5034 C1            1 RES     
    7760 C1         391.6170  -403.0708   128.8007 C1            1 RES     
    7761 C1         392.2947  -404.1476   128.2009 C1            1 RES     
    7762 N4         391.6915  -405.1629   127.5326 N4            1 RES     
    7763 S2         392.9667  -406.1271   127.1130 S2            1 RES     
    7764 N4         394.2777  -405.3377   127.7340 N4            1 RES     
    7765 C1         393.7101  -404.2528   128.3139 C1            1 RES     
    7766 C1         394.4273  -403.2845   129.0034 C1            1 RES     
    7767 H5         391.9414  -401.2769   129.9883 H5            1 RES     
    7768 C0         386.2224  -402.6820   126.3205 C0            1 RES     
    7769 C0         386.9543  -402.7452   124.9336 C0            1 RES     
    7770 C0         386.6955  -401.4067   124.1495 C0            1 RES     
    7771 C0         385.3204  -401.1499   123.4647 C0            1 RES     
    7772 C0         384.0627  -400.9748   124.3412 C0            1 RES     
    7773 C0         384.1463  -399.8714   125.4134 C0            1 RES     
    7774 C0         384.3360  -398.4675   124.8240 C0            1 RES     
    7775 C0         384.3541  -397.4129   125.9284 C0            1 RES     
    7776 C0         386.5868  -403.9243   123.9880 C0            1 RES     
    7777 C0         387.3581  -405.2202   124.2205 C0            1 RES     
    7778 C0         386.8210  -406.3402   123.3104 C0            1 RES     
    7779 C0         387.5357  -407.6779   123.5584 C0            1 RES     
    7780 C0         386.8235  -408.8205   122.8137 C0            1 RES     
    7781 C0         387.3583  -410.2205   123.1679 C0            1 RES     
    7782 C0         387.0680  -410.6119   124.6307 C0            1 RES     
    7783 C0         387.5001  -412.0445   124.9270 C0            1 RES     
    7784 H6         385.1408  -402.7593   126.1418 H6            1 RES     
    7785 H6         386.4378  -401.6436   126.6563 H6            1 RES     
    7786 H6         388.0509  -402.7368   125.1223 H6            1 RES     
    7787 H6         387.4312  -401.3952   123.3140 H6            1 RES     
    7788 H6         386.9623  -400.5338   124.7833 H6            1 RES     
    7789 H6         385.1158  -401.9615   122.7351 H6            1 RES     
    7790 H6         385.4336  -400.2217   122.8652 H6            1 RES     
    7791 H6         383.7982  -401.9338   124.8163 H6            1 RES     
    7792 H6         383.2070  -400.7434   123.6699 H6            1 RES     
    7793 H6         384.9643  -400.0848   126.1258 H6            1 RES     
    7794 H6         383.1922  -399.8862   125.9848 H6            1 RES     
    7795 H6         385.2959  -398.4084   124.2703 H6            1 RES     
    7796 H6         383.5007  -398.2420   124.1261 H6            1 RES     
    7797 H6         383.3986  -397.4286   126.4949 H6            1 RES     
    7798 H6         384.4845  -396.4055   125.4801 H6            1 RES     
    7799 H6         385.1956  -397.6026   126.6287 H6            1 RES     
    7800 H6         386.8512  -403.6517   122.9413 H6            1 RES     
    7801 H6         385.4862  -404.0815   124.0261 H6            1 RES     
    7802 H6         388.4421  -405.0545   124.0372 H6            1 RES     
    7803 H6         387.2287  -405.5164   125.2525 H6            1 RES     
    7804 H6         385.7405  -406.4675   123.5455 H6            1 RES     
    7805 H6         386.9180  -406.0600   122.2388 H6            1 RES     
    7806 H6         388.6025  -407.6163   123.2533 H6            1 RES     
    7807 H6         387.5160  -407.8831   124.6358 H6            1 RES     
    7808 H6         385.7359  -408.8072   123.0487 H6            1 RES     
    7809 H6         386.9382  -408.6507   121.7204 H6            1 RES     
    7810 H6         388.4480  -410.2780   122.9590 H6            1 RES     
    7811 H6         386.8369  -410.9499   122.5102 H6            1 RES     
    7812 H6         385.9761  -410.5286   124.8277 H6            1 RES     
    7813 H6         387.6104  -409.9479   125.3292 H6            1 RES     
    7814 H6         387.2682  -412.2885   125.9838 H6            1 RES     
    7815 H6         386.9558  -412.7567   124.2705 H6            1 RES     
    7816 H6         388.5944  -412.1577   124.7660 H6            1 RES     
    7817 C0         385.9986  -405.0131   127.6125 C0            1 RES     
    7818 C0         386.9099  -406.2787   127.7411 C0            1 RES     
    7819 C0         386.2467  -407.5030   127.0192 C0            1 RES     
    7820 C0         385.0361  -408.2437   127.6392 C0            1 RES     
    7821 C0         383.6806  -407.5090   127.6792 C0            1 RES     
    7822 C0         383.1576  -406.9912   126.3227 C0            1 RES     
    7823 C0         382.9642  -408.0892   125.2687 C0            1 RES     
    7824 C0         382.3963  -407.5015   123.9783 C0            1 RES     
    7825 C0         387.3055  -406.7362   129.1758 C0            1 RES     
    7826 C0         388.2464  -405.7999   129.9152 C0            1 RES     
    7827 C0         388.7424  -406.3893   131.2362 C0            1 RES     
    7828 C0         389.7223  -405.4125   131.8961 C0            1 RES     
    7829 C0         390.2542  -405.9624   133.2251 C0            1 RES     
    7830 C0         391.2909  -405.0346   133.8813 C0            1 RES     
    7831 C0         390.7157  -403.6632   134.2697 C0            1 RES     
    7832 C0         391.7630  -402.8097   134.9770 C0            1 RES     
    7833 H6         385.1825  -405.1462   128.3438 H6            1 RES     
    7834 H6         385.4915  -405.0743   126.6368 H6            1 RES     
    7835 H6         387.8456  -406.0822   127.1821 H6            1 RES     
    7836 H6         387.0441  -408.2742   126.9454 H6            1 RES     
    7837 H6         385.9669  -407.2307   125.9876 H6            1 RES     
    7838 H6         385.2913  -408.5934   128.6602 H6            1 RES     
    7839 H6         384.8847  -409.1627   127.0331 H6            1 RES     
    7840 H6         383.7267  -406.6687   128.3924 H6            1 RES     
    7841 H6         382.9299  -408.2174   128.0922 H6            1 RES     
    7842 H6         383.8356  -406.2243   125.9090 H6            1 RES     
    7843 H6         382.1774  -406.4998   126.5096 H6            1 RES     
    7844 H6         383.9369  -408.5684   125.0306 H6            1 RES     
    7845 H6         382.2641  -408.8608   125.6551 H6            1 RES     
    7846 H6         381.4093  -407.0285   124.1706 H6            1 RES     
    7847 H6         382.2647  -408.3060   123.2252 H6            1 RES     
    7848 H6         383.0890  -406.7372   123.5639 H6            1 RES     
    7849 H6         387.8523  -407.7006   129.0760 H6            1 RES     
    7850 H6         386.3977  -406.9134   129.7923 H6            1 RES     
    7851 H6         389.1363  -405.6313   129.2766 H6            1 RES     
    7852 H6         387.7118  -404.8617   130.1368 H6            1 RES     
    7853 H6         387.8789  -406.5764   131.9106 H6            1 RES     
    7854 H6         389.2643  -407.3533   131.0412 H6            1 RES     
    7855 H6         390.5798  -405.2329   131.2095 H6            1 RES     
    7856 H6         389.1913  -404.4533   132.0673 H6            1 RES     
    7857 H6         389.4090  -406.1325   133.9270 H6            1 RES     
    7858 H6         390.7487  -406.9398   133.0318 H6            1 RES     
    7859 H6         392.1538  -404.8982   133.1925 H6            1 RES     
    7860 H6         391.6583  -405.5389   134.8019 H6            1 RES     
    7861 H6         389.8471  -403.8028   134.9491 H6            1 RES     
    7862 H6         390.3824  -403.1112   133.3665 H6            1 RES     
    7863 H6         391.3207  -401.8271   135.2454 H6            1 RES     
    7864 H6         392.1063  -403.3117   135.9064 H6            1 RES     
    7865 H6         392.6344  -402.6377   134.3096 H6            1 RES     
    7866 C0         399.6746  -403.7588   127.7961 C0            1 RES     
    7867 C1         398.3275  -403.6128   128.5155 C1            1 RES     
    7868 C1         398.4564  -403.4622   129.8524 C1            1 RES     
    7869 S2         396.9814  -403.2784   130.6177 S2            1 RES     
    7870 C1         396.1178  -403.3874   129.1505 C1            1 RES     
    7871 C1         397.0018  -403.5648   128.0800 C1            1 RES     
    7872 C1         399.8375  -403.5037   130.1711 C1            1 RES     
    7873 C1         400.5725  -403.7048   129.0383 C1            1 RES     
    7874 C1         401.9443  -403.7936   129.2958 C1            1 RES     
    7875 C1         402.2198  -403.6611   130.6810 C1            1 RES     
    7876 S2         400.7681  -403.3981   131.5402 S2            1 RES     
    7877 H3         396.6976  -403.6542   127.0465 H3            1 RES     
    7878 H3         402.6789  -403.9566   128.5216 H3            1 RES     
    7879 N4         404.8784  -403.3462   133.3361 N4            1 RES     
    7880 C1         403.6959  -403.2343   132.6664 C1            1 RES     
    7881 C1         403.5332  -403.7760   131.3701 C1            1 RES     
    7882 C1         404.6358  -404.4495   130.8141 C1            1 RES     
    7883 N4         404.6338  -405.0663   129.6054 N4            1 RES     
    7884 S2         406.1553  -405.7072   129.5245 S2            1 RES     
    7885 N4         406.8493  -405.2543   130.9530 N4            1 RES     
    7886 C1         405.8493  -404.5621   131.5500 C1            1 RES     
    7887 C1         405.9531  -403.9941   132.8126 C1            1 RES     
    7888 H5         402.8859  -402.7062   133.1507 H5            1 RES     
    7889 C0         399.7807  -402.4310   126.9526 C0            1 RES     
    7890 C0         401.0239  -401.8435   126.1961 C0            1 RES     
    7891 C0         400.8126  -400.3014   125.9711 C0            1 RES     
    7892 C0         399.8409  -399.7942   124.8645 C0            1 RES     
    7893 C0         398.3285  -400.0631   125.0083 C0            1 RES     
    7894 C0         397.6840  -399.5623   126.3152 C0            1 RES     
    7895 C0         397.7663  -398.0397   126.4861 C0            1 RES     
    7896 C0         397.0626  -397.5983   127.7675 C0            1 RES     
    7897 C0         401.3846  -402.4756   124.8214 C0            1 RES     
    7898 C0         402.2678  -403.7186   124.8792 C0            1 RES     
    7899 C0         402.4512  -404.3179   123.4727 C0            1 RES     
    7900 C0         403.2882  -405.6065   123.4991 C0            1 RES     
    7901 C0         403.2537  -406.3048   122.1285 C0            1 RES     
    7902 C0         403.9033  -407.7010   122.1267 C0            1 RES     
    7903 C0         403.1217  -408.7181   122.9822 C0            1 RES     
    7904 C0         403.7139  -410.1195   122.8725 C0            1 RES     
    7905 H6         398.9300  -402.4438   126.2569 H6            1 RES     
    7906 H6         399.5795  -401.6521   127.7208 H6            1 RES     
    7907 H6         401.8999  -401.8963   126.8803 H6            1 RES     
    7908 H6         401.8074  -399.8965   125.6777 H6            1 RES     
    7909 H6         400.5692  -399.8036   126.9343 H6            1 RES     
    7910 H6         400.1649  -400.1925   123.8800 H6            1 RES     
    7911 H6         399.9737  -398.6929   124.8070 H6            1 RES     
    7912 H6         398.1235  -401.1391   124.8828 H6            1 RES     
    7913 H6         397.8108  -399.5728   124.1551 H6            1 RES     
    7914 H6         398.1469  -400.0560   127.1893 H6            1 RES     
    7915 H6         396.6114  -399.8556   126.2939 H6            1 RES     
    7916 H6         398.8259  -397.7146   126.5410 H6            1 RES     
    7917 H6         397.2792  -397.5421   125.6196 H6            1 RES     
    7918 H6         395.9910  -397.8903   127.7415 H6            1 RES     
    7919 H6         397.1274  -396.4944   127.8675 H6            1 RES     
    7920 H6         397.5455  -398.0649   128.6527 H6            1 RES     
    7921 H6         401.9951  -401.7532   124.2339 H6            1 RES     
    7922 H6         400.4442  -402.6581   124.2558 H6            1 RES     
    7923 H6         403.2532  -403.4632   125.3262 H6            1 RES     
    7924 H6         401.7870  -404.4523   125.5117 H6            1 RES     
    7925 H6         401.4376  -404.5625   123.0829 H6            1 RES     
    7926 H6         402.9242  -403.5813   122.7873 H6            1 RES     
    7927 H6         404.3351  -405.3893   123.8020 H6            1 RES     
    7928 H6         402.8624  -406.2771   124.2555 H6            1 RES     
    7929 H6         402.2006  -406.4240   121.7893 H6            1 RES     
    7930 H6         403.7777  -405.6564   121.3921 H6            1 RES     
    7931 H6         404.9577  -407.6330   122.4703 H6            1 RES     
    7932 H6         403.9004  -408.0658   121.0763 H6            1 RES     
    7933 H6         402.0643  -408.7579   122.6381 H6            1 RES     
    7934 H6         403.1412  -408.4295   124.0496 H6            1 RES     
    7935 H6         403.1206  -410.8203   123.4947 H6            1 RES     
    7936 H6         403.6864  -410.4702   121.8186 H6            1 RES     
    7937 H6         404.7652  -410.1227   123.2345 H6            1 RES     
    7938 C0         399.5907  -405.0989   126.9589 C0            1 RES     
    7939 C0         400.6331  -406.2647   127.0150 C0            1 RES     
    7940 C0         400.6512  -407.0450   125.6546 C0            1 RES     
    7941 C0         399.5064  -408.0133   125.2671 C0            1 RES     
    7942 C0         398.1305  -407.4073   124.9228 C0            1 RES     
    7943 C0         398.1265  -406.3441   123.8041 C0            1 RES     
    7944 C0         398.6659  -406.8510   122.4603 C0            1 RES     
    7945 C0         398.5779  -405.7564   121.3986 C0            1 RES     
    7946 C0         400.4784  -407.3123   128.1563 C0            1 RES     
    7947 C0         400.7639  -406.7903   129.5544 C0            1 RES     
    7948 C0         400.7765  -407.9019   130.6045 C0            1 RES     
    7949 C0         401.1203  -407.3070   131.9749 C0            1 RES     
    7950 C0         401.1514  -408.3861   133.0639 C0            1 RES     
    7951 C0         401.5580  -407.8319   134.4401 C0            1 RES     
    7952 C0         400.5646  -406.7979   134.9936 C0            1 RES     
    7953 C0         400.9764  -406.3328   136.3863 C0            1 RES     
    7954 H6         398.5989  -405.5669   127.0846 H6            1 RES     
    7955 H6         399.5765  -404.7238   125.9235 H6            1 RES     
    7956 H6         401.6412  -405.8153   127.1070 H6            1 RES     
    7957 H6         401.5624  -407.6810   125.6871 H6            1 RES     
    7958 H6         400.7800  -406.3420   124.8144 H6            1 RES     
    7959 H6         399.3790  -408.7811   126.0572 H6            1 RES     
    7960 H6         399.8499  -408.5622   124.3640 H6            1 RES     
    7961 H6         397.6683  -406.9796   125.8285 H6            1 RES     
    7962 H6         397.4677  -408.2428   124.6089 H6            1 RES     
    7963 H6         398.7121  -405.4578   124.1047 H6            1 RES     
    7964 H6         397.0739  -406.0130   123.6637 H6            1 RES     
    7965 H6         399.7308  -407.1484   122.5615 H6            1 RES     
    7966 H6         398.0736  -407.7297   122.1257 H6            1 RES     
    7967 H6         397.5216  -405.4442   121.2520 H6            1 RES     
    7968 H6         398.9739  -406.1362   120.4338 H6            1 RES     
    7969 H6         399.1774  -404.8718   121.7047 H6            1 RES     
    7970 H6         401.2277  -408.1145   127.9722 H6            1 RES     
    7971 H6         399.4656  -407.7698   128.1304 H6            1 RES     
    7972 H6         401.7724  -406.3309   129.5510 H6            1 RES     
    7973 H6         399.9798  -406.0662   129.8300 H6            1 RES     
    7974 H6         399.7802  -408.3934   130.6418 H6            1 RES     
    7975 H6         401.5443  -408.6613   130.3338 H6            1 RES     
    7976 H6         402.1182  -406.8168   131.9223 H6            1 RES     
    7977 H6         400.3557  -406.5413   132.2207 H6            1 RES     
    7978 H6         400.1554  -408.8745   133.1381 H6            1 RES     
    7979 H6         401.8978  -409.1589   132.7760 H6            1 RES     
    7980 H6         402.5719  -407.3791   134.3717 H6            1 RES     
    7981 H6         401.6080  -408.6895   135.1463 H6            1 RES     
    7982 H6         399.5505  -407.2494   135.0505 H6            1 RES     
    7983 H6         400.5257  -405.9050   134.3359 H6            1 RES     
    7984 H6         400.2425  -405.5883   136.7606 H6            1 RES     
    7985 H6         401.0011  -407.1929   137.0888 H6            1 RES     
    7986 H6         401.9802  -405.8578   136.3526 H6            1 RES     
    7987 C0         411.1626  -403.7513   134.2332 C0            1 RES     
    7988 C1         409.6457  -403.9772   134.1990 C1            1 RES     
    7989 C1         409.1549  -404.4445   135.3683 C1            1 RES     
    7990 S2         407.4976  -404.6604   135.3226 S2            1 RES     
    7991 C1         407.3919  -404.1138   133.7100 C1            1 RES     
    7992 C1         408.6609  -403.7678   133.2316 C1            1 RES     
    7993 C1         410.2360  -404.5941   136.2736 C1            1 RES     
    7994 C1         411.4068  -404.2443   135.6647 C1            1 RES     
    7995 C1         412.5171  -404.4087   136.4992 C1            1 RES     
    7996 C1         412.1382  -404.9106   137.7707 C1            1 RES     
    7997 S2         410.4427  -405.0978   137.8405 S2            1 RES     
    7998 H3         408.8552  -403.3870   132.2386 H3            1 RES     
    7999 H3         413.5264  -404.1872   136.1862 H3            1 RES     
    8000 N4         413.2588  -405.7698   141.2669 N4            1 RES     
    8001 C1         412.4835  -405.3942   140.2099 C1            1 RES     
    8002 C1         413.0204  -405.2947   138.9053 C1            1 RES     
    8003 C1         414.3798  -405.6186   138.7455 C1            1 RES     
    8004 N4         415.0379  -405.6221   137.5588 N4            1 RES     
    8005 S2         416.5537  -406.1222   137.9879 S2            1 RES     
    8006 N4         416.4460  -406.3484   139.6202 N4            1 RES     
    8007 C1         415.1544  -406.0241   139.8692 C1            1 RES     
    8008 C1         414.5740  -406.0862   141.1289 C1            1 RES     
    8009 H5         411.4447  -405.1608   140.3997 H5            1 RES     
    8010 C0         411.2979  -402.1836   134.1348 C0            1 RES     
    8011 C0         412.5655  -401.2893   134.3720 C0            1 RES     
    8012 C0         412.1099  -399.8174   134.6871 C0            1 RES     
    8013 C0         411.6102  -398.8869   133.5423 C0            1 RES     
    8014 C0         410.2918  -399.2262   132.8164 C0            1 RES     
    8015 C0         409.0549  -399.3853   133.7213 C0            1 RES     
    8016 C0         408.6923  -398.1031   134.4821 C0            1 RES     
    8017 C0         407.4286  -398.3052   135.3153 C0            1 RES     
    8018 C0         413.6145  -401.2230   133.2255 C0            1 RES     
    8019 C0         414.6570  -402.3372   133.2210 C0            1 RES     
    8020 C0         415.5568  -402.2314   131.9759 C0            1 RES     
    8021 C0         416.5831  -403.3732   131.9069 C0            1 RES     
    8022 C0         417.3009  -403.3767   130.5459 C0            1 RES     
    8023 C0         418.2010  -404.6061   130.3222 C0            1 RES     
    8024 C0         417.3967  -405.9176   130.2214 C0            1 RES     
    8025 C0         418.2937  -407.1041   129.8831 C0            1 RES     
    8026 H6         410.8530  -401.8998   133.1707 H6            1 RES     
    8027 H6         410.6108  -401.8411   134.9397 H6            1 RES     
    8028 H6         413.0528  -401.6257   135.3141 H6            1 RES     
    8029 H6         413.0073  -399.3010   135.0965 H6            1 RES     
    8030 H6         411.3700  -399.8146   135.5162 H6            1 RES     
    8031 H6         412.4059  -398.7895   132.7740 H6            1 RES     
    8032 H6         411.4889  -397.8760   133.9861 H6            1 RES     
    8033 H6         410.4218  -400.1335   132.2037 H6            1 RES     
    8034 H6         410.0852  -398.4150   132.0845 H6            1 RES     
    8035 H6         409.2055  -400.2103   134.4417 H6            1 RES     
    8036 H6         408.1965  -399.6617   133.0703 H6            1 RES     
    8037 H6         409.5174  -397.8140   135.1655 H6            1 RES     
    8038 H6         408.5164  -397.2788   133.7574 H6            1 RES     
    8039 H6         406.5728  -398.5782   134.6615 H6            1 RES     
    8040 H6         407.1803  -397.3646   135.8507 H6            1 RES     
    8041 H6         407.5855  -399.1105   136.0646 H6            1 RES     
    8042 H6         414.2256  -400.2993   133.3397 H6            1 RES     
    8043 H6         413.0765  -401.1514   132.2544 H6            1 RES     
    8044 H6         415.2675  -402.2892   134.1490 H6            1 RES     
    8045 H6         414.1428  -403.2884   133.2007 H6            1 RES     
    8046 H6         414.8949  -402.2964   131.0833 H6            1 RES     
    8047 H6         416.0860  -401.2539   131.9521 H6            1 RES     
    8048 H6         417.3175  -403.2925   132.7370 H6            1 RES     
    8049 H6         416.0494  -404.3229   132.0348 H6            1 RES     
    8050 H6         416.5532  -403.3538   129.7221 H6            1 RES     
    8051 H6         417.9172  -402.4537   130.4728 H6            1 RES     
    8052 H6         418.9601  -404.6767   131.1303 H6            1 RES     
    8053 H6         418.7312  -404.4564   129.3563 H6            1 RES     
    8054 H6         416.6285  -405.8216   129.4223 H6            1 RES     
    8055 H6         416.8920  -406.1425   131.1793 H6            1 RES     
    8056 H6         417.6778  -408.0238   129.8128 H6            1 RES     
    8057 H6         418.8005  -406.9408   128.9079 H6            1 RES     
    8058 H6         419.0593  -407.2466   130.6768 H6            1 RES     
    8059 C0         411.7633  -404.5695   133.0193 C0            1 RES     
    8060 C0         412.9273  -405.6105   133.1206 C0            1 RES     
    8061 C0         413.7061  -405.6907   131.7616 C0            1 RES     
    8062 C0         413.1006  -406.4050   130.5281 C0            1 RES     
    8063 C0         411.9007  -405.7404   129.8229 C0            1 RES     
    8064 C0         412.1194  -404.2867   129.3532 C0            1 RES     
    8065 C0         413.2817  -404.1186   128.3659 C0            1 RES     
    8066 C0         413.3954  -402.6645   127.9122 C0            1 RES     
    8067 C0         412.5565  -407.0643   133.5370 C0            1 RES     
    8068 C0         412.0883  -407.2245   134.9735 C0            1 RES     
    8069 C0         411.9177  -408.6902   135.3750 C0            1 RES     
    8070 C0         411.4949  -408.7716   136.8462 C0            1 RES     
    8071 C0         411.3162  -410.2255   137.2998 C0            1 RES     
    8072 C0         410.9555  -410.3444   138.7904 C0            1 RES     
    8073 C0         409.6068  -409.6954   139.1403 C0            1 RES     
    8074 C0         409.2648  -409.9011   140.6121 C0            1 RES     
    8075 H6         410.9547  -405.0662   132.4555 H6            1 RES     
    8076 H6         412.1013  -403.7672   132.3448 H6            1 RES     
    8077 H6         413.6621  -405.2285   133.8560 H6            1 RES     
    8078 H6         414.6396  -406.2516   131.9849 H6            1 RES     
    8079 H6         414.0083  -404.6810   131.4361 H6            1 RES     
    8080 H6         412.8364  -407.4497   130.7901 H6            1 RES     
    8081 H6         413.9146  -406.4781   129.7751 H6            1 RES     
    8082 H6         411.0107  -405.7791   130.4735 H6            1 RES     
    8083 H6         411.6535  -406.3585   128.9326 H6            1 RES     
    8084 H6         412.2928  -403.6189   130.2151 H6            1 RES     
    8085 H6         411.1808  -403.9519   128.8590 H6            1 RES     
    8086 H6         414.2397  -404.4052   128.8483 H6            1 RES     
    8087 H6         413.1152  -404.7643   127.4770 H6            1 RES     
    8088 H6         412.4606  -402.3440   127.4041 H6            1 RES     
    8089 H6         414.2413  -402.5578   127.2016 H6            1 RES     
    8090 H6         413.5789  -402.0005   128.7846 H6            1 RES     
    8091 H6         413.4800  -407.6791   133.4475 H6            1 RES     
    8092 H6         411.7915  -407.4835   132.8481 H6            1 RES     
    8093 H6         412.8616  -406.7903   135.6381 H6            1 RES     
    8094 H6         411.1142  -406.7214   135.0876 H6            1 RES     
    8095 H6         411.1483  -409.1680   134.7306 H6            1 RES     
    8096 H6         412.8840  -409.2274   135.2432 H6            1 RES     
    8097 H6         412.2726  -408.2879   137.4789 H6            1 RES     
    8098 H6         410.5405  -408.2175   136.9625 H6            1 RES     
    8099 H6         410.5307  -410.7173   136.6857 H6            1 RES     
    8100 H6         412.2742  -410.7673   137.1388 H6            1 RES     
    8101 H6         411.7626  -409.8866   139.4040 H6            1 RES     
    8102 H6         410.9031  -411.4272   139.0382 H6            1 RES     
    8103 H6         408.8040  -410.1469   138.5180 H6            1 RES     
    8104 H6         409.6398  -408.6027   138.9495 H6            1 RES     
    8105 H6         408.2877  -409.4232   140.8359 H6            1 RES     
    8106 H6         409.1925  -410.9850   140.8436 H6            1 RES     
    8107 H6         410.0431  -409.4394   141.2565 H6            1 RES     
    8108 C0         418.4645  -406.3932   144.8687 C0            1 RES     
    8109 C1         417.2074  -406.6138   144.0176 C1            1 RES     
    8110 C1         416.3932  -407.5704   144.5162 C1            1 RES     
    8111 S2         415.0161  -407.7801   143.5916 S2            1 RES     
    8112 C1         415.4785  -406.5659   142.4860 C1            1 RES     
    8113 C1         416.7080  -406.0121   142.8609 C1            1 RES     
    8114 C1         416.9890  -408.0885   145.6940 C1            1 RES     
    8115 C1         418.1873  -407.4746   145.9203 C1            1 RES     
    8116 C1         418.8420  -407.9731   147.0511 C1            1 RES     
    8117 C1         418.0904  -409.0043   147.6709 C1            1 RES     
    8118 S2         416.6240  -409.2415   146.8295 S2            1 RES     
    8119 H3         417.2088  -405.2191   142.3231 H3            1 RES     
    8120 H3         419.8040  -407.6110   147.3815 H3            1 RES     
    8121 N4         417.7894  -411.3257   150.6268 N4            1 RES     
    8122 C1         417.4715  -410.5306   149.5657 C1            1 RES     
    8123 C1         418.4708  -409.8397   148.8416 C1            1 RES     
    8124 C1         419.8033  -410.0252   149.2522 C1            1 RES     
    8125 N4         420.8828  -409.4766   148.6398 N4            1 RES     
    8126 S2         422.1438  -410.0819   149.5204 S2            1 RES     
    8127 N4         421.4105  -411.0243   150.6612 N4            1 RES     
    8128 C1         420.0993  -410.8772   150.3538 C1            1 RES     
    8129 C1         419.0721  -411.5154   151.0358 C1            1 RES     
    8130 H5         416.4279  -410.4320   149.2996 H5            1 RES     
    8131 C0         418.2517  -404.9478   145.4614 C0            1 RES     
    8132 C0         419.0459  -404.2287   146.6083 C0            1 RES     
    8133 C0         418.1643  -403.0692   147.2012 C0            1 RES     
    8134 C0         417.9926  -401.7334   146.4190 C0            1 RES     
    8135 C0         417.2296  -401.7377   145.0779 C0            1 RES     
    8136 C0         415.8026  -402.3170   145.1253 C0            1 RES     
    8137 C0         414.8581  -401.5261   146.0400 C0            1 RES     
    8138 C0         413.4483  -402.1118   146.0015 C0            1 RES     
    8139 C0         420.4334  -403.6272   146.2443 C0            1 RES     
    8140 C0         421.6109  -404.5949   146.3180 C0            1 RES     
    8141 C0         422.9005  -403.9170   145.8195 C0            1 RES     
    8142 C0         424.0978  -404.8803   145.8242 C0            1 RES     
    8143 C0         425.3035  -404.2517   145.1041 C0            1 RES     
    8144 C0         426.4771  -405.2261   144.8924 C0            1 RES     
    8145 C0         426.1290  -406.3683   143.9170 C0            1 RES     
    8146 C0         427.3383  -407.2527   143.6304 C0            1 RES     
    8147 H6         418.2050  -404.2690   144.5984 H6            1 RES     
    8148 H6         417.2283  -405.0221   145.8909 H6            1 RES     
    8149 H6         419.1517  -404.9436   147.4544 H6            1 RES     
    8150 H6         418.6517  -402.7735   148.1574 H6            1 RES     
    8151 H6         417.1653  -403.4586   147.4929 H6            1 RES     
    8152 H6         418.9908  -401.2809   146.2405 H6            1 RES     
    8153 H6         417.4579  -401.0354   147.0977 H6            1 RES     
    8154 H6         417.8189  -402.2667   144.3109 H6            1 RES     
    8155 H6         417.1671  -400.6882   144.7161 H6            1 RES     
    8156 H6         415.8245  -403.3749   145.4456 H6            1 RES     
    8157 H6         415.3948  -402.2887   144.0909 H6            1 RES     
    8158 H6         415.2201  -401.5585   147.0884 H6            1 RES     
    8159 H6         414.8161  -400.4674   145.7037 H6            1 RES     
    8160 H6         413.0432  -402.0792   144.9675 H6            1 RES     
    8161 H6         412.7806  -401.5210   146.6632 H6            1 RES     
    8162 H6         413.4587  -403.1651   146.3551 H6            1 RES     
    8163 H6         420.6993  -402.8413   146.9869 H6            1 RES     
    8164 H6         420.3586  -403.1366   145.2487 H6            1 RES     
    8165 H6         421.7389  -404.9577   147.3612 H6            1 RES     
    8166 H6         421.3964  -405.4456   145.6857 H6            1 RES     
    8167 H6         422.7166  -403.5864   144.7727 H6            1 RES     
    8168 H6         423.1406  -403.0225   146.4347 H6            1 RES     
    8169 H6         424.3679  -405.1671   146.8633 H6            1 RES     
    8170 H6         423.8029  -405.7972   145.2991 H6            1 RES     
    8171 H6         424.9946  -403.8758   144.1034 H6            1 RES     
    8172 H6         425.6536  -403.3816   145.7020 H6            1 RES     
    8173 H6         426.8140  -405.6372   145.8680 H6            1 RES     
    8174 H6         427.3148  -404.6438   144.4500 H6            1 RES     
    8175 H6         425.7743  -405.9389   142.9538 H6            1 RES     
    8176 H6         425.3348  -407.0135   144.3364 H6            1 RES     
    8177 H6         427.0487  -408.0550   142.9214 H6            1 RES     
    8178 H6         428.1562  -406.6546   143.1747 H6            1 RES     
    8179 H6         427.7041  -407.7212   144.5701 H6            1 RES     
    8180 C0         419.6991  -406.5600   143.8932 C0            1 RES     
    8181 C0         420.9204  -407.5075   144.1372 C0            1 RES     
    8182 C0         422.1968  -406.9467   143.4188 C0            1 RES     
    8183 C0         422.3613  -407.0397   141.8817 C0            1 RES     
    8184 C0         421.4545  -406.1555   141.0015 C0            1 RES     
    8185 C0         421.4994  -404.6420   141.2996 C0            1 RES     
    8186 C0         422.8941  -404.0191   141.1549 C0            1 RES     
    8187 C0         422.8404  -402.5149   141.4146 C0            1 RES     
    8188 C0         420.7653  -409.0005   143.7234 C0            1 RES     
    8189 C0         419.7844  -409.8036   144.5609 C0            1 RES     
    8190 C0         419.8132  -411.2959   144.2280 C0            1 RES     
    8191 C0         418.8386  -412.0434   145.1452 C0            1 RES     
    8192 C0         418.8355  -413.5489   144.8538 C0            1 RES     
    8193 C0         417.9158  -414.3373   145.8019 C0            1 RES     
    8194 C0         416.4347  -413.9476   145.6709 C0            1 RES     
    8195 C0         415.5600  -414.8044   146.5799 C0            1 RES     
    8196 H6         419.3501  -406.7665   142.8665 H6            1 RES     
    8197 H6         420.0900  -405.5320   143.8376 H6            1 RES     
    8198 H6         421.1594  -407.4826   145.2184 H6            1 RES     
    8199 H6         423.0509  -407.5265   143.8315 H6            1 RES     
    8200 H6         422.3590  -405.8923   143.6994 H6            1 RES     
    8201 H6         422.2676  -408.0956   141.5562 H6            1 RES     
    8202 H6         423.4095  -406.7458   141.6585 H6            1 RES     
    8203 H6         420.4099  -406.5046   141.0644 H6            1 RES     
    8204 H6         421.7634  -406.3097   139.9448 H6            1 RES     
    8205 H6         421.1263  -404.4324   142.3173 H6            1 RES     
    8206 H6         420.8096  -404.1414   140.5848 H6            1 RES     
    8207 H6         423.5944  -404.4710   141.8884 H6            1 RES     
    8208 H6         423.2794  -404.1967   140.1278 H6            1 RES     
    8209 H6         422.1633  -402.0206   140.6852 H6            1 RES     
    8210 H6         423.8557  -402.0791   141.3094 H6            1 RES     
    8211 H6         422.4725  -402.3131   142.4439 H6            1 RES     
    8212 H6         421.7562  -409.4872   143.8651 H6            1 RES     
    8213 H6         420.4890  -409.0803   142.6496 H6            1 RES     
    8214 H6         420.0747  -409.6994   145.6253 H6            1 RES     
    8215 H6         418.7653  -409.4289   144.3708 H6            1 RES     
    8216 H6         419.5282  -411.4482   143.1645 H6            1 RES     
    8217 H6         420.8411  -411.6932   144.3873 H6            1 RES     
    8218 H6         419.1345  -411.8805   146.2058 H6            1 RES     
    8219 H6         417.8238  -411.6238   144.9861 H6            1 RES     
    8220 H6         418.5268  -413.7277   143.8008 H6            1 RES     
    8221 H6         419.8696  -413.9374   144.9844 H6            1 RES     
    8222 H6         418.2516  -414.1881   146.8519 H6            1 RES     
    8223 H6         418.0222  -415.4160   145.5535 H6            1 RES     
    8224 H6         416.1049  -414.0871   144.6187 H6            1 RES     
    8225 H6         416.2848  -412.8863   145.9584 H6            1 RES     
    8226 H6         414.4978  -414.5018   146.4647 H6            1 RES     
    8227 H6         415.6562  -415.8772   146.3087 H6            1 RES     
    8228 H6         415.8566  -414.6664   147.6416 H6            1 RES     
    8229 C0         420.9563  -413.3915   155.7419 C0            1 RES     
    8230 C1         420.2718  -413.2319   154.3783 C1            1 RES     
    8231 C1         419.5762  -414.3289   154.0051 C1            1 RES     
    8232 S2         418.8155  -414.1292   152.5297 S2            1 RES     
    8233 C1         419.4003  -412.5362   152.3551 C1            1 RES     
    8234 C1         420.1836  -412.1838   153.4602 C1            1 RES     
    8235 C1         419.7198  -415.3099   155.0189 C1            1 RES     
    8236 C1         420.5247  -414.8375   156.0153 C1            1 RES     
    8237 C1         420.7351  -415.7784   157.0284 C1            1 RES     
    8238 C1         420.0604  -416.9953   156.7519 C1            1 RES     
    8239 S2         419.1929  -416.8597   155.2878 S2            1 RES     
    8240 H3         420.6609  -411.2221   153.5873 H3            1 RES     
    8241 H3         421.3492  -415.5829   157.8946 H3            1 RES     
    8242 N4         419.0942  -420.4086   158.0296 N4            1 RES     
    8243 C1         419.0780  -419.2271   157.3491 C1            1 RES     
    8244 C1         420.0942  -418.2608   157.5331 C1            1 RES     
    8245 C1         421.1281  -418.5814   158.4313 C1            1 RES     
    8246 N4         422.2009  -417.7908   158.6871 N4            1 RES     
    8247 S2         423.0726  -418.6999   159.7574 S2            1 RES     
    8248 N4         422.1715  -420.0727   159.9327 N4            1 RES     
    8249 C1         421.1216  -419.8325   159.1109 C1            1 RES     
    8250 C1         420.0863  -420.7334   158.9008 C1            1 RES     
    8251 H5         418.2559  -419.0426   156.6712 H5            1 RES     
    8252 C0         420.1752  -412.3756   156.6605 C0            1 RES     
    8253 C0         420.2113  -412.2349   158.2231 C0            1 RES     
    8254 C0         418.9137  -411.4893   158.7065 C0            1 RES     
    8255 C0         418.7783  -409.9484   158.5243 C0            1 RES     
    8256 C0         418.6821  -409.3633   157.0999 C0            1 RES     
    8257 C0         417.5530  -409.9338   156.2202 C0            1 RES     
    8258 C0         416.1515  -409.6638   156.7835 C0            1 RES     
    8259 C0         415.0754  -410.2008   155.8424 C0            1 RES     
    8260 C0         421.4350  -411.5023   158.8437 C0            1 RES     
    8261 C0         422.6624  -412.3716   159.1010 C0            1 RES     
    8262 C0         423.8396  -411.5123   159.5980 C0            1 RES     
    8263 C0         425.1126  -412.3460   159.8123 C0            1 RES     
    8264 C0         426.3223  -411.4324   160.0758 C0            1 RES     
    8265 C0         427.6690  -412.1786   160.1046 C0            1 RES     
    8266 C0         428.0505  -412.7639   158.7301 C0            1 RES     
    8267 C0         429.4389  -413.3953   158.7522 C0            1 RES     
    8268 H6         420.3394  -411.3811   156.2223 H6            1 RES     
    8269 H6         419.1165  -412.6593   156.4713 H6            1 RES     
    8270 H6         420.1144  -413.2525   158.6628 H6            1 RES     
    8271 H6         418.8633  -411.6469   159.8075 H6            1 RES     
    8272 H6         418.0096  -411.9912   158.2998 H6            1 RES     
    8273 H6         419.6186  -409.4415   159.0439 H6            1 RES     
    8274 H6         417.8571  -409.6452   159.0658 H6            1 RES     
    8275 H6         419.6483  -409.4746   156.5808 H6            1 RES     
    8276 H6         418.5316  -408.2653   157.1902 H6            1 RES     
    8277 H6         417.6875  -411.0214   156.0745 H6            1 RES     
    8278 H6         417.6291  -409.4501   155.2216 H6            1 RES     
    8279 H6         416.0303  -410.1585   157.7694 H6            1 RES     
    8280 H6         416.0059  -408.5687   156.9073 H6            1 RES     
    8281 H6         415.1527  -409.7134   154.8470 H6            1 RES     
    8282 H6         414.0707  -409.9885   156.2646 H6            1 RES     
    8283 H6         415.1847  -411.2996   155.7189 H6            1 RES     
    8284 H6         421.1652  -411.1313   159.8583 H6            1 RES     
    8285 H6         421.6758  -410.6163   158.2155 H6            1 RES     
    8286 H6         422.4176  -413.1639   159.8416 H6            1 RES     
    8287 H6         422.9457  -412.8490   158.1729 H6            1 RES     
    8288 H6         424.0448  -410.7483   158.8149 H6            1 RES     
    8289 H6         423.5756  -410.9875   160.5419 H6            1 RES     
    8290 H6         424.9755  -413.0654   160.6482 H6            1 RES     
    8291 H6         425.2958  -412.9328   158.9038 H6            1 RES     
    8292 H6         426.3879  -410.6517   159.2855 H6            1 RES     
    8293 H6         426.1674  -410.9189   161.0502 H6            1 RES     
    8294 H6         427.6469  -412.9787   160.8751 H6            1 RES     
    8295 H6         428.4503  -411.4403   160.3891 H6            1 RES     
    8296 H6         428.0475  -411.9536   157.9676 H6            1 RES     
    8297 H6         427.3320  -413.5470   158.4244 H6            1 RES     
    8298 H6         429.6776  -413.7967   157.7462 H6            1 RES     
    8299 H6         430.2048  -412.6372   159.0228 H6            1 RES     
    8300 H6         429.4708  -414.2296   159.4866 H6            1 RES     
    8301 C0         422.4887  -413.0709   155.5125 C0            1 RES     
    8302 C0         423.6773  -413.9982   155.9323 C0            1 RES     
    8303 C0         424.9641  -413.1441   156.2054 C0            1 RES     
    8304 C0         425.7825  -412.5282   155.0438 C0            1 RES     
    8305 C0         425.1539  -411.3625   154.2533 C0            1 RES     
    8306 C0         424.7068  -410.1468   155.0923 C0            1 RES     
    8307 C0         425.8386  -409.4942   155.8966 C0            1 RES     
    8308 C0         425.3240  -408.2716   156.6539 C0            1 RES     
    8309 C0         424.0723  -415.1457   154.9570 C0            1 RES     
    8310 C0         423.0507  -416.2629   154.8277 C0            1 RES     
    8311 C0         423.5719  -417.4423   154.0055 C0            1 RES     
    8312 C0         422.5087  -418.5458   153.9632 C0            1 RES     
    8313 C0         422.9876  -419.7565   153.1530 C0            1 RES     
    8314 C0         421.9689  -420.9091   153.1458 C0            1 RES     
    8315 C0         420.6380  -420.5362   152.4734 C0            1 RES     
    8316 C0         419.6915  -421.7312   152.4311 C0            1 RES     
    8317 H6         422.6688  -412.7987   154.4580 H6            1 RES     
    8318 H6         422.6095  -412.1202   156.0550 H6            1 RES     
    8319 H6         423.4212  -414.4594   156.9062 H6            1 RES     
    8320 H6         425.6729  -413.8282   156.7207 H6            1 RES     
    8321 H6         424.7361  -412.3272   156.9106 H6            1 RES     
    8322 H6         426.0898  -413.3246   154.3359 H6            1 RES     
    8323 H6         426.7232  -412.1413   155.4914 H6            1 RES     
    8324 H6         424.2975  -411.7260   153.6604 H6            1 RES     
    8325 H6         425.9090  -411.0151   153.5152 H6            1 RES     
    8326 H6         423.8989  -410.4286   155.7899 H6            1 RES     
    8327 H6         424.2886  -409.3930   154.3892 H6            1 RES     
    8328 H6         426.2464  -410.2127   156.6382 H6            1 RES     
    8329 H6         426.6536  -409.1793   155.2098 H6            1 RES     
    8330 H6         424.9245  -407.5166   155.9432 H6            1 RES     
    8331 H6         426.1521  -407.8123   157.2328 H6            1 RES     
    8332 H6         424.5176  -408.5656   157.3603 H6            1 RES     
    8333 H6         424.9936  -415.6211   155.3622 H6            1 RES     
    8334 H6         424.3058  -414.7376   153.9497 H6            1 RES     
    8335 H6         422.8276  -416.6447   155.8439 H6            1 RES     
    8336 H6         422.1521  -415.8661   154.3277 H6            1 RES     
    8337 H6         423.8106  -417.1037   152.9742 H6            1 RES     
    8338 H6         424.4967  -417.8451   154.4769 H6            1 RES     
    8339 H6         422.2782  -418.8734   155.0017 H6            1 RES     
    8340 H6         421.5899  -418.1229   153.5069 H6            1 RES     
    8341 H6         423.2075  -419.4467   152.1081 H6            1 RES     
    8342 H6         423.9279  -420.1383   153.6083 H6            1 RES     
    8343 H6         421.7811  -421.2432   154.1902 H6            1 RES     
    8344 H6         422.4237  -421.7562   152.5870 H6            1 RES     
    8345 H6         420.8297  -420.1924   151.4340 H6            1 RES     
    8346 H6         420.1327  -419.7234   153.0351 H6            1 RES     
    8347 H6         418.7405  -421.4335   151.9411 H6            1 RES     
    8348 H6         420.1456  -422.5629   151.8517 H6            1 RES     
    8349 H6         419.4671  -422.0814   153.4612 H6            1 RES     
    8350 C0         420.1804  -424.4912   162.7849 C0            1 RES     
    8351 C1         420.1234  -423.7480   161.4441 C1            1 RES     
    8352 C1         419.9349  -424.5732   160.3905 C1            1 RES     
    8353 S2         419.8492  -423.7453   158.9405 S2            1 RES     
    8354 C1         420.0555  -422.2326   159.7017 C1            1 RES     
    8355 C1         420.1870  -422.4003   161.0850 C1            1 RES     
    8356 C1         419.8630  -425.9030   160.8775 C1            1 RES     
    8357 C1         420.0309  -425.9140   162.2324 C1            1 RES     
    8358 C1         420.0083  -427.2063   162.7667 C1            1 RES     
    8359 C1         419.8255  -428.1816   161.7530 C1            1 RES     
    8360 S2         419.6569  -427.4185   160.2351 S2            1 RES     
    8361 H3         420.3215  -421.5894   161.7873 H3            1 RES     
    8362 H3         420.1306  -427.4097   163.8199 H3            1 RES     
    8363 N4         419.2502  -431.8249   160.9702 N4            1 RES     
    8364 C1         419.2441  -430.4640   160.8839 C1            1 RES     
    8365 C1         419.8241  -429.6625   161.8945 C1            1 RES     
    8366 C1         420.4223  -430.3310   162.9780 C1            1 RES     
    8367 N4         421.0630  -429.7171   164.0047 N4            1 RES     
    8368 S2         421.5862  -430.9918   164.9176 S2            1 RES     
    8369 N4         421.0509  -432.3157   164.0880 N4            1 RES     
    8370 C1         420.4254  -431.7539   163.0257 C1            1 RES     
    8371 C1         419.8243  -432.4858   162.0105 C1            1 RES     
    8372 H5         418.7698  -430.0118   160.0236 H5            1 RES     
    8373 C0         418.8666  -424.0186   163.5173 C0            1 RES     
    8374 C0         418.2012  -424.5990   164.8148 C0            1 RES     
    8375 C0         416.6851  -424.1824   164.8506 C0            1 RES     
    8376 C0         416.2779  -422.7292   165.2357 C0            1 RES     
    8377 C0         416.6595  -421.5656   164.2972 C0            1 RES     
    8378 C0         416.1822  -421.7023   162.8385 C0            1 RES     
    8379 C0         414.6545  -421.7482   162.7032 C0            1 RES     
    8380 C0         414.2415  -421.8260   161.2350 C0            1 RES     
    8381 C0         418.8327  -424.1985   166.1787 C0            1 RES     
    8382 C0         420.0024  -425.0619   166.6420 C0            1 RES     
    8383 C0         420.6156  -424.4936   167.9351 C0            1 RES     
    8384 C0         421.8349  -425.3048   168.4007 C0            1 RES     
    8385 C0         422.5628  -424.5817   169.5473 C0            1 RES     
    8386 C0         423.9045  -425.2294   169.9369 C0            1 RES     
    8387 C0         424.9604  -425.1210   168.8187 C0            1 RES     
    8388 C0         426.3140  -425.6622   169.2675 C0            1 RES     
    8389 H6         418.9597  -422.9300   163.6367 H6            1 RES     
    8390 H6         418.0894  -424.2103   162.7450 H6            1 RES     
    8391 H6         418.1718  -425.7074   164.7204 H6            1 RES     
    8392 H6         416.2111  -424.8219   165.6290 H6            1 RES     
    8393 H6         416.1872  -424.4666   163.8988 H6            1 RES     
    8394 H6         416.6710  -422.4930   166.2470 H6            1 RES     
    8395 H6         415.1712  -422.7248   165.3296 H6            1 RES     
    8396 H6         417.7505  -421.4081   164.3167 H6            1 RES     
    8397 H6         416.2288  -420.6309   164.7179 H6            1 RES     
    8398 H6         416.6201  -422.6030   162.3705 H6            1 RES     
    8399 H6         416.5577  -420.8177   162.2786 H6            1 RES     
    8400 H6         414.2476  -422.6379   163.2270 H6            1 RES     
    8401 H6         414.2144  -420.8311   163.1516 H6            1 RES     
    8402 H6         414.6158  -420.9396   160.6797 H6            1 RES     
    8403 H6         413.1340  -421.8505   161.1598 H6            1 RES     
    8404 H6         414.6506  -422.7474   160.7679 H6            1 RES     
    8405 H6         418.0781  -424.3327   166.9863 H6            1 RES     
    8406 H6         419.0991  -423.1190   166.1443 H6            1 RES     
    8407 H6         419.6624  -426.1088   166.7986 H6            1 RES     
    8408 H6         420.7574  -425.0614   165.8677 H6            1 RES     
    8409 H6         420.9458  -423.4536   167.7150 H6            1 RES     
    8410 H6         419.8594  -424.4585   168.7495 H6            1 RES     
    8411 H6         421.5313  -426.3273   168.7125 H6            1 RES     
    8412 H6         422.5202  -425.4130   167.5510 H6            1 RES     
    8413 H6         422.7700  -423.5268   169.2602 H6            1 RES     
    8414 H6         421.8917  -424.5681   170.4343 H6            1 RES     
    8415 H6         423.7481  -426.2916   170.2223 H6            1 RES     
    8416 H6         424.2907  -424.6819   170.8244 H6            1 RES     
    8417 H6         425.0889  -424.0537   168.5314 H6            1 RES     
    8418 H6         424.6485  -425.6974   167.9279 H6            1 RES     
    8419 H6         427.0451  -425.5597   168.4396 H6            1 RES     
    8420 H6         426.6881  -425.0912   170.1441 H6            1 RES     
    8421 H6         426.2285  -426.7374   169.5375 H6            1 RES     
    8422 C0         421.5404  -424.0666   163.4733 C0            1 RES     
    8423 C0         422.6209  -425.0562   164.0230 C0            1 RES     
    8424 C0         423.4263  -424.3887   165.1917 C0            1 RES     
    8425 C0         424.4880  -423.2956   164.9157 C0            1 RES     
    8426 C0         423.9973  -421.9132   164.4393 C0            1 RES     
    8427 C0         422.9616  -421.2188   165.3486 C0            1 RES     
    8428 C0         423.4538  -420.9748   166.7811 C0            1 RES     
    8429 C0         422.3921  -420.2389   167.5962 C0            1 RES     
    8430 C0         423.6529  -425.6293   163.0077 C0            1 RES     
    8431 C0         423.0808  -426.5903   161.9792 C0            1 RES     
    8432 C0         424.1655  -427.2582   161.1331 C0            1 RES     
    8433 C0         423.5169  -428.2472   160.1579 C0            1 RES     
    8434 C0         424.5670  -428.9494   159.2886 C0            1 RES     
    8435 C0         423.9541  -429.9970   158.3437 C0            1 RES     
    8436 C0         422.9881  -429.3910   157.3131 C0            1 RES     
    8437 C0         422.4632  -430.4589   156.3594 C0            1 RES     
    8438 H6         422.0807  -423.3430   162.8386 H6            1 RES     
    8439 H6         421.1896  -423.4616   164.3240 H6            1 RES     
    8440 H6         422.0934  -425.9136   164.4846 H6            1 RES     
    8441 H6         423.9893  -425.2156   165.6768 H6            1 RES     
    8442 H6         422.7335  -423.9845   165.9489 H6            1 RES     
    8443 H6         425.2463  -423.6787   164.2029 H6            1 RES     
    8444 H6         425.0278  -423.1316   165.8731 H6            1 RES     
    8445 H6         423.5873  -421.9888   163.4180 H6            1 RES     
    8446 H6         424.8879  -421.2524   164.3612 H6            1 RES     
    8447 H6         422.0266  -421.8040   165.3946 H6            1 RES     
    8448 H6         422.7156  -420.2383   164.8844 H6            1 RES     
    8449 H6         423.6660  -421.9415   167.2841 H6            1 RES     
    8450 H6         424.3825  -420.3649   166.7598 H6            1 RES     
    8451 H6         422.1654  -419.2534   167.1355 H6            1 RES     
    8452 H6         422.7606  -420.0722   168.6297 H6            1 RES     
    8453 H6         421.4576  -420.8389   167.6450 H6            1 RES     
    8454 H6         424.3987  -426.2154   163.5900 H6            1 RES     
    8455 H6         424.1875  -424.8046   162.4883 H6            1 RES     
    8456 H6         422.5452  -427.3953   162.5207 H6            1 RES     
    8457 H6         422.4137  -426.0309   161.3032 H6            1 RES     
    8458 H6         424.7315  -426.4844   160.5707 H6            1 RES     
    8459 H6         424.8691  -427.8094   161.7971 H6            1 RES     
    8460 H6         422.9525  -429.0142   160.7342 H6            1 RES     
    8461 H6         422.8074  -427.6847   159.5164 H6            1 RES     
    8462 H6         425.1291  -428.1956   158.6952 H6            1 RES     
    8463 H6         425.2860  -429.4742   159.9556 H6            1 RES     
    8464 H6         423.4260  -430.7715   158.9428 H6            1 RES     
    8465 H6         424.7900  -430.4893   157.8000 H6            1 RES     
    8466 H6         423.5152  -428.6099   156.7234 H6            1 RES     
    8467 H6         422.1150  -428.9317   157.8213 H6            1 RES     
    8468 H6         421.7696  -429.9936   155.6275 H6            1 RES     
    8469 H6         423.3037  -430.9280   155.8051 H6            1 RES     
    8470 H6         421.9130  -431.2421   156.9234 H6            1 RES     
    8471 C0         419.1506  -437.5906   163.6548 C0            1 RES     
    8472 C1         419.4934  -436.3229   162.8618 C1            1 RES     
    8473 C1         419.9721  -436.5865   161.6258 C1            1 RES     
    8474 S2         420.3161  -435.1947   160.7657 S2            1 RES     
    8475 C1         419.8137  -434.1854   162.0461 C1            1 RES     
    8476 C1         419.3811  -434.9574   163.1304 C1            1 RES     
    8477 C1         420.0187  -437.9941   161.4603 C1            1 RES     
    8478 C1         419.5928  -438.6127   162.6004 C1            1 RES     
    8479 C1         419.6533  -440.0071   162.5106 C1            1 RES     
    8480 C1         420.1558  -440.4225   161.2507 C1            1 RES     
    8481 S2         420.4716  -439.0596   160.2723 S2            1 RES     
    8482 H3         419.0077  -434.5489   164.0591 H3            1 RES     
    8483 H3         419.3613  -440.6619   163.3178 H3            1 RES     
    8484 N4         420.8515  -443.3301   158.9531 N4            1 RES     
    8485 C1         420.5594  -442.0778   159.4069 C1            1 RES     
    8486 C1         420.4466  -441.8069   160.7904 C1            1 RES     
    8487 C1         420.6680  -442.8792   161.6733 C1            1 RES     
    8488 N4         420.6460  -442.7816   163.0266 N4            1 RES     
    8489 S2         421.0185  -444.3190   163.5058 S2            1 RES     
    8490 N4         421.2177  -445.1365   162.0847 N4            1 RES     
    8491 C1         420.9886  -444.1695   161.1639 C1            1 RES     
    8492 C1         421.0685  -444.3767   159.7935 C1            1 RES     
    8493 H5         420.4027  -441.2965   158.6758 H5            1 RES     
    8494 C0         417.5795  -437.5304   163.7729 C0            1 RES     
    8495 C0         416.5853  -438.6498   164.2436 C0            1 RES     
    8496 C0         415.1466  -438.3292   163.6954 C0            1 RES     
    8497 C0         414.2819  -437.2169   164.3596 C0            1 RES     
    8498 C0         414.7372  -435.7463   164.2572 C0            1 RES     
    8499 C0         414.9719  -435.2194   162.8284 C0            1 RES     
    8500 C0         413.7056  -435.2340   161.9621 C0            1 RES     
    8501 C0         413.9867  -434.6490   160.5798 C0            1 RES     
    8502 C0         416.4628  -438.8950   165.7747 C0            1 RES     
    8503 C0         417.4932  -439.8477   166.3739 C0            1 RES     
    8504 C0         417.3448  -439.9117   167.9052 C0            1 RES     
    8505 C0         418.4053  -440.8177   168.5504 C0            1 RES     
    8506 C0         418.3825  -440.6748   170.0822 C0            1 RES     
    8507 C0         419.5432  -441.3979   170.7903 C0            1 RES     
    8508 C0         420.9147  -440.7714   170.4682 C0            1 RES     
    8509 C0         422.0354  -441.4261   171.2695 C0            1 RES     
    8510 H6         417.3514  -436.6116   164.3313 H6            1 RES     
    8511 H6         417.2740  -437.3698   162.7155 H6            1 RES     
    8512 H6         416.8631  -439.5960   163.7280 H6            1 RES     
    8513 H6         414.5540  -439.2622   163.8291 H6            1 RES     
    8514 H6         415.1832  -438.1635   162.5972 H6            1 RES     
    8515 H6         414.1398  -437.4546   165.4348 H6            1 RES     
    8516 H6         413.2741  -437.2807   163.8970 H6            1 RES     
    8517 H6         415.6446  -435.5897   164.8635 H6            1 RES     
    8518 H6         413.9601  -435.1129   164.7382 H6            1 RES     
    8519 H6         415.7673  -435.8009   162.3270 H6            1 RES     
    8520 H6         415.3275  -434.1689   162.9126 H6            1 RES     
    8521 H6         413.3393  -436.2735   161.8323 H6            1 RES     
    8522 H6         412.9128  -434.6292   162.4533 H6            1 RES     
    8523 H6         414.3387  -433.5989   160.6676 H6            1 RES     
    8524 H6         413.0569  -434.6621   159.9730 H6            1 RES     
    8525 H6         414.7614  -435.2499   160.0571 H6            1 RES     
    8526 H6         415.4925  -439.3971   165.9897 H6            1 RES     
    8527 H6         416.4536  -437.9109   166.2932 H6            1 RES     
    8528 H6         417.3785  -440.8597   165.9280 H6            1 RES     
    8529 H6         418.4814  -439.4799   166.1336 H6            1 RES     
    8530 H6         417.4795  -438.8773   168.2938 H6            1 RES     
    8531 H6         416.3302  -440.2659   168.1900 H6            1 RES     
    8532 H6         418.2506  -441.8773   168.2533 H6            1 RES     
    8533 H6         419.3904  -440.5142   168.1753 H6            1 RES     
    8534 H6         418.4347  -439.5997   170.3643 H6            1 RES     
    8535 H6         417.4164  -441.0791   170.4571 H6            1 RES     
    8536 H6         419.5379  -442.4776   170.5288 H6            1 RES     
    8537 H6         419.3737  -441.3022   171.8851 H6            1 RES     
    8538 H6         420.8952  -439.6870   170.7165 H6            1 RES     
    8539 H6         421.1574  -440.8897   169.3957 H6            1 RES     
    8540 H6         423.0012  -440.9436   171.0150 H6            1 RES     
    8541 H6         421.8543  -441.3048   172.3590 H6            1 RES     
    8542 H6         422.1015  -442.5088   171.0254 H6            1 RES     
    8543 C0         419.9456  -437.4923   165.0194 C0            1 RES     
    8544 C0         420.8914  -438.5984   165.5944 C0            1 RES     
    8545 C0         420.9402  -438.5135   167.1597 C0            1 RES     
    8546 C0         421.7252  -437.3897   167.8805 C0            1 RES     
    8547 C0         421.1701  -435.9529   167.8011 C0            1 RES     
    8548 C0         419.7142  -435.7686   168.2786 C0            1 RES     
    8549 C0         419.4780  -436.1876   169.7355 C0            1 RES     
    8550 C0         418.0295  -435.9243   170.1424 C0            1 RES     
    8551 C0         422.3603  -438.6268   165.0787 C0            1 RES     
    8552 C0         422.5255  -439.0316   163.6236 C0            1 RES     
    8553 C0         423.9912  -439.2198   163.2297 C0            1 RES     
    8554 C0         424.0736  -439.6754   161.7684 C0            1 RES     
    8555 C0         425.5270  -439.8844   161.3263 C0            1 RES     
    8556 C0         425.6417  -440.4053   159.8835 C0            1 RES     
    8557 C0         425.0913  -439.4209   158.8392 C0            1 RES     
    8558 C0         425.2914  -439.9538   157.4244 C0            1 RES     
    8559 H6         420.5151  -436.5477   165.0630 H6            1 RES     
    8560 H6         419.1342  -437.3454   165.7493 H6            1 RES     
    8561 H6         420.4384  -439.5838   165.3696 H6            1 RES     
    8562 H6         421.4227  -439.4572   167.4953 H6            1 RES     
    8563 H6         419.9174  -438.5112   167.5727 H6            1 RES     
    8564 H6         422.7813  -437.3917   167.5423 H6            1 RES     
    8565 H6         421.7513  -437.6641   168.9571 H6            1 RES     
    8566 H6         421.2635  -435.5678   166.7716 H6            1 RES     
    8567 H6         421.8243  -435.3081   168.4273 H6            1 RES     
    8568 H6         419.0169  -436.3325   167.6347 H6            1 RES     
    8569 H6         419.4633  -434.6901   168.1727 H6            1 RES     
    8570 H6         419.6797  -437.2721   169.8606 H6            1 RES     
    8571 H6         420.1534  -435.6129   170.4052 H6            1 RES     
    8572 H6         417.7928  -434.8424   170.0506 H6            1 RES     
    8573 H6         417.8731  -436.2346   171.1964 H6            1 RES     
    8574 H6         417.3349  -436.5026   169.4953 H6            1 RES     
    8575 H6         422.9039  -439.3957   165.6721 H6            1 RES     
    8576 H6         422.8518  -437.6444   165.2490 H6            1 RES     
    8577 H6         422.0191  -440.0065   163.4778 H6            1 RES     
    8578 H6         422.0968  -438.2424   162.9846 H6            1 RES     
    8579 H6         424.5405  -438.2626   163.3618 H6            1 RES     
    8580 H6         424.4549  -439.9954   163.8801 H6            1 RES     
    8581 H6         423.5181  -440.6328   161.6506 H6            1 RES     
    8582 H6         423.5924  -438.9000   161.1371 H6            1 RES     
    8583 H6         426.0908  -438.9312   161.4245 H6            1 RES     
    8584 H6         425.9967  -440.6376   161.9966 H6            1 RES     
    8585 H6         425.1101  -441.3788   159.7983 H6            1 RES     
    8586 H6         426.7198  -440.5792   159.6736 H6            1 RES     
    8587 H6         425.6164  -438.4458   158.9338 H6            1 RES     
    8588 H6         424.0036  -439.2612   158.9904 H6            1 RES     
    8589 H6         424.8856  -439.2238   156.6925 H6            1 RES     
    8590 H6         426.3725  -440.1023   157.2173 H6            1 RES     
    8591 H6         424.7575  -440.9197   157.2976 H6            1 RES     
    8592 C0         420.9951  -449.6872   158.7886 C0            1 RES     
    8593 C1         421.3300  -448.1905   158.8217 C1            1 RES     
    8594 C1         422.3357  -447.8557   157.9832 C1            1 RES     
    8595 S2         422.6705  -446.2179   158.0122 S2            1 RES     
    8596 C1         421.4481  -445.9084   159.1612 C1            1 RES     
    8597 C1         420.7933  -447.0970   159.5040 C1            1 RES     
    8598 C1         422.7812  -449.0348   157.3337 C1            1 RES     
    8599 C1         422.0720  -450.1117   157.7825 C1            1 RES     
    8600 C1         422.4945  -451.3129   157.2041 C1            1 RES     
    8601 C1         423.5671  -451.1021   156.3000 C1            1 RES     
    8602 S2         423.9344  -449.4373   156.2113 S2            1 RES     
    8603 H3         419.9757  -447.1613   160.2084 H3            1 RES     
    8604 H3         422.0524  -452.2685   157.4430 H3            1 RES     
    8605 N4         425.8415  -452.6397   153.7154 N4            1 RES     
    8606 C1         425.0959  -451.7351   154.4119 C1            1 RES     
    8607 C1         424.3456  -452.1217   155.5467 C1            1 RES     
    8608 C1         424.4191  -453.4720   155.9337 C1            1 RES     
    8609 N4         423.8021  -453.9974   157.0222 N4            1 RES     
    8610 S2         424.2895  -455.5764   156.9866 S2            1 RES     
    8611 N4         425.2612  -455.6582   155.6537 N4            1 RES     
    8612 C1         425.2222  -454.3848   155.1928 C1            1 RES     
    8613 C1         425.9230  -453.9480   154.0767 C1            1 RES     
    8614 H5         425.0838  -450.7114   154.0635 H5            1 RES     
    8615 C0         419.5582  -449.7228   158.1408 C0            1 RES     
    8616 C0         418.7558  -450.9564   157.5954 C0            1 RES     
    8617 C0         417.6554  -450.4555   156.5897 C0            1 RES     
    8618 C0         416.3536  -449.7838   157.1191 C0            1 RES     
    8619 C0         416.4453  -448.4159   157.8268 C0            1 RES     
    8620 C0         417.1317  -447.2947   157.0232 C0            1 RES     
    8621 C0         416.3967  -446.9449   155.7225 C0            1 RES     
    8622 C0         417.0900  -445.7917   155.0003 C0            1 RES     
    8623 C0         418.0570  -451.8702   158.6423 C0            1 RES     
    8624 C0         418.9292  -452.9671   159.2460 C0            1 RES     
    8625 C0         418.1647  -453.7200   160.3504 C0            1 RES     
    8626 C0         419.0326  -454.7953   161.0228 C0            1 RES     
    8627 C0         418.3284  -455.3612   162.2683 C0            1 RES     
    8628 C0         419.2137  -456.2996   163.1092 C0            1 RES     
    8629 C0         420.3997  -455.5640   163.7645 C0            1 RES     
    8630 C0         421.1942  -456.4845   164.6855 C0            1 RES     
    8631 H6         418.9034  -449.1613   158.8220 H6            1 RES     
    8632 H6         419.7019  -449.1084   157.2248 H6            1 RES     
    8633 H6         419.4423  -451.5606   156.9614 H6            1 RES     
    8634 H6         417.3026  -451.3614   156.0470 H6            1 RES     
    8635 H6         418.1143  -449.8103   155.8100 H6            1 RES     
    8636 H6         415.8295  -450.4853   157.8018 H6            1 RES     
    8637 H6         415.6847  -449.6545   156.2419 H6            1 RES     
    8638 H6         416.9434  -448.5298   158.8037 H6            1 RES     
    8639 H6         415.4116  -448.0864   158.0704 H6            1 RES     
    8640 H6         418.1777  -447.5683   156.7923 H6            1 RES     
    8641 H6         417.1569  -446.3880   157.6668 H6            1 RES     
    8642 H6         416.3788  -447.8214   155.0422 H6            1 RES     
    8643 H6         415.3517  -446.6458   155.9557 H6            1 RES     
    8644 H6         417.1107  -444.8871   155.6450 H6            1 RES     
    8645 H6         416.5385  -445.5502   154.0674 H6            1 RES     
    8646 H6         418.1316  -446.0735   154.7353 H6            1 RES     
    8647 H6         417.2374  -452.4373   158.1459 H6            1 RES     
    8648 H6         417.5949  -451.2274   159.4239 H6            1 RES     
    8649 H6         419.2589  -453.6704   158.4506 H6            1 RES     
    8650 H6         419.8072  -452.5079   159.6796 H6            1 RES     
    8651 H6         417.8716  -452.9704   161.1193 H6            1 RES     
    8652 H6         417.2415  -454.1878   159.9441 H6            1 RES     
    8653 H6         419.2755  -455.6093   160.3062 H6            1 RES     
    8654 H6         419.9804  -454.3327   161.3242 H6            1 RES     
    8655 H6         417.9987  -454.5289   162.9292 H6            1 RES     
    8656 H6         417.4213  -455.9132   161.9370 H6            1 RES     
    8657 H6         419.5767  -457.1441   162.4854 H6            1 RES     
    8658 H6         418.5781  -456.7132   163.9225 H6            1 RES     
    8659 H6         420.0195  -454.7099   164.3677 H6            1 RES     
    8660 H6         421.0952  -455.1789   162.9957 H6            1 RES     
    8661 H6         422.0314  -455.9172   165.1411 H6            1 RES     
    8662 H6         420.5446  -456.8732   165.4988 H6            1 RES     
    8663 H6         421.6130  -457.3380   164.1089 H6            1 RES     
    8664 C0         421.0870  -450.1984   160.2832 C0            1 RES     
    8665 C0         421.9321  -451.4231   160.7676 C0            1 RES     
    8666 C0         421.2900  -452.0541   162.0519 C0            1 RES     
    8667 C0         421.4026  -451.3602   163.4319 C0            1 RES     
    8668 C0         420.6099  -450.0559   163.6535 C0            1 RES     
    8669 C0         419.0914  -450.1406   163.3915 C0            1 RES     
    8670 C0         418.3662  -451.1784   164.2580 C0            1 RES     
    8671 C0         416.8653  -451.1607   163.9746 C0            1 RES     
    8672 C0         423.4410  -451.1817   161.0661 C0            1 RES     
    8673 C0         424.2994  -450.8809   159.8490 C0            1 RES     
    8674 C0         425.7918  -450.8371   160.1799 C0            1 RES     
    8675 C0         426.5926  -450.5807   158.8981 C0            1 RES     
    8676 C0         428.0997  -450.5339   159.1772 C0            1 RES     
    8677 C0         428.9362  -450.3433   157.9005 C0            1 RES     
    8678 C0         428.6647  -449.0059   157.1932 C0            1 RES     
    8679 C0         429.5669  -448.8367   155.9754 C0            1 RES     
    8680 H6         421.3415  -449.3629   160.9582 H6            1 RES     
    8681 H6         420.0333  -450.4161   160.5180 H6            1 RES     
    8682 H6         421.8659  -452.2104   159.9914 H6            1 RES     
    8683 H6         421.7933  -453.0363   162.1859 H6            1 RES     
    8684 H6         420.2205  -452.2622   161.8797 H6            1 RES     
    8685 H6         422.4694  -451.1849   163.6792 H6            1 RES     
    8686 H6         421.0336  -452.0910   164.1833 H6            1 RES     
    8687 H6         421.0370  -449.2448   163.0398 H6            1 RES     
    8688 H6         420.7623  -449.7492   164.7111 H6            1 RES     
    8689 H6         418.8896  -450.3682   162.3302 H6            1 RES     
    8690 H6         418.6609  -449.1369   163.6021 H6            1 RES     
    8691 H6         418.7470  -452.1974   164.0362 H6            1 RES     
    8692 H6         418.5353  -450.9535   165.3331 H6            1 RES     
    8693 H6         416.4404  -450.1600   164.2045 H6            1 RES     
    8694 H6         416.3549  -451.9176   164.6058 H6            1 RES     
    8695 H6         416.6707  -451.3996   162.9066 H6            1 RES     
    8696 H6         423.8468  -452.1232   161.4995 H6            1 RES     
    8697 H6         423.5647  -450.3716   161.8171 H6            1 RES     
    8698 H6         424.1505  -451.6958   159.1129 H6            1 RES     
    8699 H6         424.0085  -449.8980   159.4436 H6            1 RES     
    8700 H6         425.9881  -450.0308   160.9194 H6            1 RES     
    8701 H6         426.1052  -451.8122   160.6166 H6            1 RES     
    8702 H6         426.3848  -451.3937   158.1668 H6            1 RES     
    8703 H6         426.2558  -449.6149   158.4679 H6            1 RES     
    8704 H6         428.3240  -449.7156   159.8956 H6            1 RES     
    8705 H6         428.4044  -451.4979   159.6411 H6            1 RES     
    8706 H6         428.7393  -451.1849   157.2001 H6            1 RES     
    8707 H6         430.0086  -450.3788   158.1928 H6            1 RES     
    8708 H6         428.8516  -448.1673   157.8984 H6            1 RES     
    8709 H6         427.6123  -448.9567   156.8448 H6            1 RES     
    8710 H6         429.3496  -447.8642   155.4854 H6            1 RES     
    8711 H6         430.6346  -448.8508   156.2811 H6            1 RES     
    8712 H6         429.3839  -449.6528   155.2441 H6            1 RES     
    8713 C0         427.5478  -458.2302   151.2063 C0            1 RES     
    8714 C1         427.4705  -456.9030   151.9719 C1            1 RES     
    8715 C1         428.6255  -456.2024   151.9320 C1            1 RES     
    8716 S2         428.5165  -454.7476   152.7486 S2            1 RES     
    8717 C1         426.8871  -455.0191   153.1750 C1            1 RES     
    8718 C1         426.4520  -456.2489   152.6676 C1            1 RES     
    8719 C1         429.5708  -456.9499   151.1846 C1            1 RES     
    8720 C1         429.0166  -458.1292   150.7770 C1            1 RES     
    8721 C1         429.9168  -458.9291   150.0657 C1            1 RES     
    8722 C1         431.1876  -458.3078   149.9591 C1            1 RES     
    8723 S2         431.1505  -456.7748   150.7096 S2            1 RES     
    8724 H3         425.4540  -456.6434   152.7980 H3            1 RES     
    8725 H3         429.6562  -459.8992   149.6700 H3            1 RES     
    8726 N4         434.6374  -458.4581   148.4446 N4            1 RES     
    8727 C1         433.4753  -457.9835   148.9773 C1            1 RES     
    8728 C1         432.4299  -458.8585   149.3537 C1            1 RES     
    8729 C1         432.6507  -460.2358   149.1726 C1            1 RES     
    8730 N4         431.7745  -461.2105   149.5240 N4            1 RES     
    8731 S2         432.5907  -462.5911   149.1245 S2            1 RES     
    8732 N4         434.0249  -462.0391   148.5197 N4            1 RES     
    8733 C1         433.8839  -460.6962   148.6300 C1            1 RES     
    8734 C1         434.8662  -459.7861   148.2635 C1            1 RES     
    8735 H5         433.3693  -456.9135   149.0925 H5            1 RES     
    8736 C0         426.5758  -458.0018   149.9861 C0            1 RES     
    8737 C0         426.3996  -458.8734   148.6930 C0            1 RES     
    8738 C0         425.7462  -457.9972   147.5623 C0            1 RES     
    8739 C0         424.2245  -457.6674   147.6037 C0            1 RES     
    8740 C0         423.6789  -456.7657   148.7305 C0            1 RES     
    8741 C0         424.3534  -455.3869   148.8659 C0            1 RES     
    8742 C0         424.1802  -454.5036   147.6232 C0            1 RES     
    8743 C0         424.8185  -453.1331   147.8381 C0            1 RES     
    8744 C0         425.5618  -460.1776   148.8224 C0            1 RES     
    8745 C0         426.3283  -461.4087   149.2972 C0            1 RES     
    8746 C0         425.3704  -462.5968   149.5017 C0            1 RES     
    8747 C0         426.0988  -463.8399   150.0365 C0            1 RES     
    8748 C0         425.0893  -464.9237   150.4531 C0            1 RES     
    8749 C0         425.7287  -466.1204   151.1814 C0            1 RES     
    8750 C0         426.3119  -465.7338   152.5553 C0            1 RES     
    8751 C0         426.8338  -466.9529   153.3091 C0            1 RES     
    8752 H6         425.5812  -457.8242   150.4186 H6            1 RES     
    8753 H6         426.9443  -457.0365   149.5742 H6            1 RES     
    8754 H6         427.4121  -459.1098   148.2965 H6            1 RES     
    8755 H6         425.8837  -458.5676   146.6161 H6            1 RES     
    8756 H6         426.3248  -457.0589   147.4223 H6            1 RES     
    8757 H6         423.6434  -458.6135   147.6142 H6            1 RES     
    8758 H6         423.9818  -457.1707   146.6403 H6            1 RES     
    8759 H6         423.7265  -457.2976   149.6951 H6            1 RES     
    8760 H6         422.5942  -456.6057   148.5462 H6            1 RES     
    8761 H6         425.4302  -455.5026   149.0878 H6            1 RES     
    8762 H6         423.8866  -454.8690   149.7324 H6            1 RES     
    8763 H6         424.6618  -454.9779   146.7431 H6            1 RES     
    8764 H6         423.0973  -454.3663   147.4135 H6            1 RES     
    8765 H6         424.3479  -452.6176   148.7025 H6            1 RES     
    8766 H6         424.6753  -452.5085   146.9313 H6            1 RES     
    8767 H6         425.9080  -453.2407   148.0278 H6            1 RES     
    8768 H6         425.1913  -460.4775   147.8161 H6            1 RES     
    8769 H6         424.6735  -459.9685   149.4585 H6            1 RES     
    8770 H6         427.1212  -461.6686   148.5624 H6            1 RES     
    8771 H6         426.8021  -461.1753   150.2409 H6            1 RES     
    8772 H6         424.6097  -462.2829   150.2512 H6            1 RES     
    8773 H6         424.8476  -462.8513   148.5540 H6            1 RES     
    8774 H6         426.8087  -464.2361   149.2788 H6            1 RES     
    8775 H6         426.6889  -463.5420   150.9119 H6            1 RES     
    8776 H6         424.3228  -464.4880   151.1321 H6            1 RES     
    8777 H6         424.5687  -465.2868   149.5397 H6            1 RES     
    8778 H6         426.5115  -466.5831   150.5431 H6            1 RES     
    8779 H6         424.9265  -466.8715   151.3510 H6            1 RES     
    8780 H6         425.5206  -465.2537   153.1729 H6            1 RES     
    8781 H6         427.1544  -465.0270   152.4387 H6            1 RES     
    8782 H6         427.2369  -466.6340   154.2920 H6            1 RES     
    8783 H6         426.0134  -467.6820   153.4816 H6            1 RES     
    8784 H6         427.6473  -467.4436   152.7315 H6            1 RES     
    8785 C0         427.1150  -459.3598   152.2264 C0            1 RES     
    8786 C0         427.9388  -460.6516   152.5451 C0            1 RES     
    8787 C0         426.9825  -461.8096   152.9973 C0            1 RES     
    8788 C0         426.3301  -461.8123   154.4018 C0            1 RES     
    8789 C0         425.2334  -460.7677   154.6931 C0            1 RES     
    8790 C0         424.0382  -460.7594   153.7168 C0            1 RES     
    8791 C0         423.2834  -462.0931   153.6441 C0            1 RES     
    8792 C0         422.0883  -461.9834   152.6992 C0            1 RES     
    8793 C0         429.0729  -460.5368   153.6057 C0            1 RES     
    8794 C0         430.2681  -459.6987   153.1841 C0            1 RES     
    8795 C0         431.4210  -459.7752   154.1859 C0            1 RES     
    8796 C0         432.6038  -458.9487   153.6684 C0            1 RES     
    8797 C0         433.7909  -458.9987   154.6379 C0            1 RES     
    8798 C0         435.0185  -458.2323   154.1165 C0            1 RES     
    8799 C0         434.7637  -456.7263   153.9451 C0            1 RES     
    8800 C0         436.0287  -456.0041   153.4935 C0            1 RES     
    8801 H6         426.8522  -458.9143   153.2015 H6            1 RES     
    8802 H6         426.1465  -459.6842   151.8145 H6            1 RES     
    8803 H6         428.3976  -461.0040   151.6007 H6            1 RES     
    8804 H6         427.5988  -462.7344   152.9685 H6            1 RES     
    8805 H6         426.1708  -461.9417   152.2621 H6            1 RES     
    8806 H6         427.1154  -461.7435   155.1818 H6            1 RES     
    8807 H6         425.8624  -462.8122   154.5302 H6            1 RES     
    8808 H6         425.6744  -459.7572   154.7318 H6            1 RES     
    8809 H6         424.8447  -460.9690   155.7149 H6            1 RES     
    8810 H6         424.3666  -460.4870   152.6986 H6            1 RES     
    8811 H6         423.3340  -459.9695   154.0596 H6            1 RES     
    8812 H6         423.9524  -462.8927   153.2626 H6            1 RES     
    8813 H6         422.9213  -462.3748   154.6563 H6            1 RES     
    8814 H6         421.3816  -461.2049   153.0586 H6            1 RES     
    8815 H6         421.5543  -462.9554   152.6545 H6            1 RES     
    8816 H6         422.4285  -461.7179   151.6748 H6            1 RES     
    8817 H6         429.4672  -461.5630   153.7800 H6            1 RES     
    8818 H6         428.6696  -460.1513   154.5671 H6            1 RES     
    8819 H6         430.6442  -460.0957   152.2203 H6            1 RES     
    8820 H6         429.9524  -458.6456   153.1034 H6            1 RES     
    8821 H6         431.0869  -459.3862   155.1720 H6            1 RES     
    8822 H6         431.7412  -460.8349   154.3049 H6            1 RES     
    8823 H6         432.9261  -459.3476   152.6805 H6            1 RES     
    8824 H6         432.2627  -457.9007   153.5395 H6            1 RES     
    8825 H6         433.4874  -458.5888   155.6258 H6            1 RES     
    8826 H6         434.0893  -460.0610   154.7783 H6            1 RES     
    8827 H6         435.3438  -458.6706   153.1470 H6            1 RES     
    8828 H6         435.8397  -458.3718   154.8532 H6            1 RES     
    8829 H6         434.4282  -456.2932   154.9122 H6            1 RES     
    8830 H6         433.9805  -456.5489   153.1792 H6            1 RES     
    8831 H6         435.8157  -454.9204   153.3783 H6            1 RES     
    8832 H6         436.8350  -456.1306   154.2468 H6            1 RES     
    8833 H6         436.3732  -456.4053   152.5165 H6            1 RES     
    8834 C0         438.5221  -462.2692   145.1514 C0            1 RES     
    8835 C1         437.8141  -461.4338   146.2258 C1            1 RES     
    8836 C1         438.6736  -460.7647   147.0259 C1            1 RES     
    8837 S2         437.8859  -459.8392   148.1741 S2            1 RES     
    8838 C1         436.3459  -460.3114   147.6120 C1            1 RES     
    8839 C1         436.4735  -461.1883   146.5286 C1            1 RES     
    8840 C1         439.9944  -461.0716   146.6110 C1            1 RES     
    8841 C1         439.9636  -461.9515   145.5675 C1            1 RES     
    8842 C1         441.2422  -462.3224   145.1388 C1            1 RES     
    8843 C1         442.2500  -461.6913   145.9123 C1            1 RES     
    8844 S2         441.5346  -460.6647   147.0737 S2            1 RES     
    8845 H3         435.6399  -461.6219   145.9938 H3            1 RES     
    8846 H3         441.4131  -463.0144   144.3279 H3            1 RES     
    8847 N4         445.9426  -461.0617   146.3431 N4            1 RES     
    8848 C1         444.5884  -460.9059   146.3790 C1            1 RES     
    8849 C1         443.7232  -461.8801   145.8290 C1            1 RES     
    8850 C1         444.3204  -463.0212   145.2635 C1            1 RES     
    8851 N4         443.6373  -464.0693   144.7376 N4            1 RES     
    8852 S2         444.8482  -465.1009   144.2889 S2            1 RES     
    8853 N4         446.2268  -464.3026   144.7243 N4            1 RES     
    8854 C1         445.7376  -463.1583   145.2597 C1            1 RES     
    8855 C1         446.5350  -462.1586   145.8004 C1            1 RES     
    8856 H5         444.1925  -460.0064   146.8302 H5            1 RES     
    8857 C0         438.1367  -461.5360   143.8099 C0            1 RES     
    8858 C0         438.7390  -461.7324   142.3740 C0            1 RES     
    8859 C0         438.4398  -460.4547   141.5072 C0            1 RES     
    8860 C0         437.0145  -460.2141   140.9272 C0            1 RES     
    8861 C0         435.8451  -459.9321   141.8935 C0            1 RES     
    8862 C0         436.0491  -458.7486   142.8587 C0            1 RES     
    8863 C0         436.2155  -457.4031   142.1403 C0            1 RES     
    8864 C0         436.3562  -456.2636   143.1472 C0            1 RES     
    8865 C0         438.2621  -462.9728   141.5658 C0            1 RES     
    8866 C0         439.0227  -464.2677   141.8363 C0            1 RES     
    8867 C0         438.3814  -465.4414   141.0733 C0            1 RES     
    8868 C0         439.0862  -466.7750   141.3678 C0            1 RES     
    8869 C0         438.2849  -467.9528   140.7862 C0            1 RES     
    8870 C0         438.8189  -469.3345   141.2071 C0            1 RES     
    8871 C0         438.6532  -469.5978   142.7172 C0            1 RES     
    8872 C0         439.0788  -471.0137   143.0924 C0            1 RES     
    8873 H6         437.0419  -461.5958   143.7342 H6            1 RES     
    8874 H6         438.4041  -460.4806   144.0379 H6            1 RES     
    8875 H6         439.8481  -461.7407   142.4640 H6            1 RES     
    8876 H6         439.0973  -460.5322   140.6121 H6            1 RES     
    8877 H6         438.7817  -459.5416   142.0403 H6            1 RES     
    8878 H6         436.7272  -461.0757   140.2884 H6            1 RES     
    8879 H6         437.0934  -459.3412   140.2450 H6            1 RES     
    8880 H6         435.6036  -460.8415   142.4681 H6            1 RES     
    8881 H6         434.9376  -459.7309   141.2833 H6            1 RES     
    8882 H6         436.9232  -458.9275   143.5116 H6            1 RES     
    8883 H6         435.1504  -458.6893   143.5112 H6            1 RES     
    8884 H6         437.1226  -457.4169   141.5011 H6            1 RES     
    8885 H6         435.3258  -457.2105   141.5023 H6            1 RES     
    8886 H6         435.4555  -456.2056   143.7951 H6            1 RES     
    8887 H6         436.4676  -455.3000   142.6070 H6            1 RES     
    8888 H6         437.2530  -456.4205   143.7841 H6            1 RES     
    8889 H6         438.4368  -462.7936   140.4808 H6            1 RES     
    8890 H6         437.1662  -463.0943   141.7136 H6            1 RES     
    8891 H6         440.0891  -464.1490   141.5451 H6            1 RES     
    8892 H6         438.9805  -464.4755   142.8968 H6            1 RES     
    8893 H6         437.3240  -465.5178   141.4125 H6            1 RES     
    8894 H6         438.3875  -465.2517   139.9778 H6            1 RES     
    8895 H6         440.1222  -466.7694   140.9658 H6            1 RES     
    8896 H6         439.1593  -466.8918   142.4560 H6            1 RES     
    8897 H6         437.2235  -467.8888   141.1142 H6            1 RES     
    8898 H6         438.3042  -467.8753   139.6768 H6            1 RES     
    8899 H6         439.8837  -469.4406   140.9086 H6            1 RES     
    8900 H6         438.2245  -470.0992   140.6608 H6            1 RES     
    8901 H6         437.5855  -469.4671   143.0021 H6            1 RES     
    8902 H6         439.2707  -468.8956   143.3076 H6            1 RES     
    8903 H6         438.9379  -471.1647   144.1821 H6            1 RES     
    8904 H6         438.4622  -471.7605   142.5479 H6            1 RES     
    8905 H6         440.1514  -471.1715   142.8456 H6            1 RES     
    8906 C0         437.9794  -463.7475   145.3059 C0            1 RES     
    8907 C0         438.8708  -465.0246   145.4585 C0            1 RES     
    8908 C0         438.1186  -466.2834   144.9021 C0            1 RES     
    8909 C0         436.9530  -466.9358   145.6857 C0            1 RES     
    8910 C0         435.6230  -466.1611   145.7837 C0            1 RES     
    8911 C0         434.9913  -465.7396   144.4402 C0            1 RES     
    8912 C0         434.6797  -466.9132   143.5023 C0            1 RES     
    8913 C0         434.0107  -466.4154   142.2226 C0            1 RES     
    8914 C0         439.3841  -465.3760   146.8858 C0            1 RES     
    8915 C0         440.4080  -464.4107   147.4590 C0            1 RES     
    8916 C0         441.0082  -464.9056   148.7756 C0            1 RES     
    8917 C0         442.0647  -463.9077   149.2632 C0            1 RES     
    8918 C0         442.7022  -464.3636   150.5812 C0            1 RES     
    8919 C0         443.8138  -463.4165   151.0642 C0            1 RES     
    8920 C0         443.3061  -462.0019   151.3864 C0            1 RES     
    8921 C0         444.4313  -461.1250   151.9253 C0            1 RES     
    8922 H6         437.2299  -463.7972   146.1147 H6            1 RES     
    8923 H6         437.3852  -463.8725   144.3871 H6            1 RES     
    8924 H6         439.7564  -464.9013   144.8049 H6            1 RES     
    8925 H6         438.8891  -467.0809   144.8227 H6            1 RES     
    8926 H6         437.7530  -466.0873   143.8801 H6            1 RES     
    8927 H6         437.2916  -467.2092   146.7057 H6            1 RES     
    8928 H6         436.7276  -467.8961   145.1738 H6            1 RES     
    8929 H6         435.7516  -465.2677   146.4178 H6            1 RES     
    8930 H6         434.8974  -466.8116   146.3187 H6            1 RES     
    8931 H6         435.6457  -465.0288   143.9061 H6            1 RES     
    8932 H6         434.0428  -465.2064   144.6713 H6            1 RES     
    8933 H6         435.6163  -467.4383   143.2201 H6            1 RES     
    8934 H6         434.0006  -467.6303   144.0117 H6            1 RES     
    8935 H6         433.0556  -465.8998   142.4611 H6            1 RES     
    8936 H6         433.7942  -467.2739   141.5535 H6            1 RES     
    8937 H6         434.6797  -465.7076   141.6867 H6            1 RES     
    8938 H6         439.8985  -466.3607   146.8187 H6            1 RES     
    8939 H6         438.5319  -465.4762   147.5924 H6            1 RES     
    8940 H6         441.2402  -464.3203   146.7328 H6            1 RES     
    8941 H6         439.9162  -463.4425   147.6481 H6            1 RES     
    8942 H6         440.2052  -465.0123   149.5367 H6            1 RES     
    8943 H6         441.4892  -465.8970   148.6163 H6            1 RES     
    8944 H6         442.8605  -463.8093   148.4911 H6            1 RES     
    8945 H6         441.5724  -462.9227   149.4001 H6            1 RES     
    8946 H6         441.9202  -464.4518   151.3666 H6            1 RES     
    8947 H6         443.1558  -465.3675   150.4271 H6            1 RES     
    8948 H6         444.6138  -463.3614   150.2931 H6            1 RES     
    8949 H6         444.2516  -463.8552   151.9875 H6            1 RES     
    8950 H6         442.4994  -462.0608   152.1489 H6            1 RES     
    8951 H6         442.9048  -461.5153   150.4733 H6            1 RES     
    8952 H6         444.0365  -460.1115   152.1490 H6            1 RES     
    8953 H6         444.8459  -461.5600   152.8593 H6            1 RES     
    8954 H6         445.2424  -461.0330   151.1717 H6            1 RES     
    8955 C0         451.6404  -462.8819   144.1793 C0            1 RES     
    8956 C1         450.3672  -462.6390   144.9999 C1            1 RES     
    8957 C1         450.6194  -462.3846   146.3030 C1            1 RES     
    8958 S2         449.2237  -462.0966   147.1774 S2            1 RES     
    8959 C1         448.2292  -462.2986   145.8061 C1            1 RES     
    8960 C1         449.0090  -462.5877   144.6804 C1            1 RES     
    8961 C1         452.0224  -462.4405   146.5012 C1            1 RES     
    8962 C1         452.6476  -462.7538   145.3287 C1            1 RES     
    8963 C1         454.0348  -462.8615   145.4709 C1            1 RES     
    8964 C1         454.4369  -462.6255   146.8107 C1            1 RES     
    8965 S2         453.0748  -462.2517   147.7695 S2            1 RES     
    8966 H3         448.6109  -462.7514   143.6887 H3            1 RES     
    8967 H3         454.6929  -463.1079   144.6512 H3            1 RES     
    8968 N4         457.3304  -462.1747   149.1858 N4            1 RES     
    8969 C1         456.0950  -462.0829   148.6159 C1            1 RES     
    8970 C1         455.8043  -462.7226   147.3885 C1            1 RES     
    8971 C1         456.8373  -463.4707   146.7955 C1            1 RES     
    8972 N4         456.7129  -464.1830   145.6471 N4            1 RES     
    8973 S2         458.2065  -464.8723   145.4861 S2            1 RES     
    8974 N4         459.0362  -464.3259   146.8053 N4            1 RES     
    8975 C1         458.1095  -463.5588   147.4285 C1            1 RES     
    8976 C1         458.3391  -462.8939   148.6254 C1            1 RES     
    8977 H5         455.3438  -461.4940   149.1241 H5            1 RES     
    8978 C0         451.6990  -461.6303   143.2223 C0            1 RES     
    8979 C0         452.8814  -461.1424   142.3130 C0            1 RES     
    8980 C0         452.6844  -459.6180   141.9801 C0            1 RES     
    8981 C0         451.6282  -459.1738   140.9251 C0            1 RES     
    8982 C0         450.1294  -459.3860   141.2233 C0            1 RES     
    8983 C0         449.6165  -458.7625   142.5357 C0            1 RES     
    8984 C0         449.7471  -457.2341   142.5716 C0            1 RES     
    8985 C0         449.1716  -456.6703   143.8689 C0            1 RES     
    8986 C0         453.1028  -461.8938   140.9692 C0            1 RES     
    8987 C0         453.9602  -463.1533   141.0521 C0            1 RES     
    8988 C0         454.0029  -463.8694   139.6896 C0            1 RES     
    8989 C0         454.8106  -465.1755   139.7492 C0            1 RES     
    8990 C0         454.6374  -465.9810   138.4497 C0            1 RES     
    8991 C0         455.2536  -467.3912   138.5068 C0            1 RES     
    8992 C0         454.5303  -468.3125   139.5094 C0            1 RES     
    8993 C0         455.0794  -469.7349   139.4649 C0            1 RES     
    8994 H6         450.7889  -461.6744   142.6077 H6            1 RES     
    8995 H6         451.5849  -460.7863   143.9378 H6            1 RES     
    8996 H6         453.8142  -461.1652   142.9194 H6            1 RES     
    8997 H6         453.6573  -459.2674   141.5676 H6            1 RES     
    8998 H6         452.5398  -459.0371   142.9162 H6            1 RES     
    8999 H6         451.8533  -459.6597   139.9524 H6            1 RES     
    9000 H6         451.7793  -458.0851   140.7647 H6            1 RES     
    9001 H6         449.8905  -460.4622   141.2063 H6            1 RES     
    9002 H6         449.5477  -458.9513   140.3812 H6            1 RES     
    9003 H6         450.1455  -459.1973   143.4037 H6            1 RES     
    9004 H6         448.5402  -459.0252   142.6335 H6            1 RES     
    9005 H6         450.8142  -456.9368   142.5058 H6            1 RES     
    9006 H6         449.1948  -456.7943   141.7130 H6            1 RES     
    9007 H6         448.0959  -456.9321   143.9617 H6            1 RES     
    9008 H6         449.2692  -455.5643   143.8707 H6            1 RES     
    9009 H6         449.7221  -457.0777   144.7438 H6            1 RES     
    9010 H6         453.6735  -461.2394   140.2722 H6            1 RES     
    9011 H6         452.1115  -462.0939   140.5057 H6            1 RES     
    9012 H6         454.9873  -462.8915   141.3877 H6            1 RES     
    9013 H6         453.5226  -463.8191   141.7833 H6            1 RES     
    9014 H6         452.9532  -464.1150   139.4123 H6            1 RES     
    9015 H6         454.4282  -463.2048   138.9063 H6            1 RES     
    9016 H6         455.8850  -464.9651   139.9396 H6            1 RES     
    9017 H6         454.4402  -465.7701   140.5933 H6            1 RES     
    9018 H6         453.5557  -466.0965   138.2158 H6            1 RES     
    9019 H6         455.1069  -465.4098   137.6187 H6            1 RES     
    9020 H6         456.3358  -467.3264   138.7494 H6            1 RES     
    9021 H6         455.1480  -467.8395   137.4948 H6            1 RES     
    9022 H6         453.4456  -468.3491   139.2643 H6            1 RES     
    9023 H6         454.6522  -467.9393   140.5432 H6            1 RES     
    9024 H6         454.5295  -470.3655   140.1930 H6            1 RES     
    9025 H6         454.9493  -470.1687   138.4503 H6            1 RES     
    9026 H6         456.1588  -469.7395   139.7318 H6            1 RES     
    9027 C0         451.4521  -464.2822   143.4670 C0            1 RES     
    9028 C0         452.4696  -465.4696   143.5278 C0            1 RES     
    9029 C0         452.3479  -466.3575   142.2407 C0            1 RES     
    9030 C0         451.1520  -467.3202   142.0374 C0            1 RES     
    9031 C0         449.7642  -466.7042   141.7664 C0            1 RES     
    9032 C0         449.6825  -465.7352   140.5680 C0            1 RES     
    9033 C0         450.0874  -466.3646   139.2286 C0            1 RES     
    9034 C0         449.9280  -465.3573   138.0915 C0            1 RES     
    9035 C0         452.3956  -466.4166   144.7614 C0            1 RES     
    9036 C0         452.8174  -465.7918   146.0807 C0            1 RES     
    9037 C0         452.9003  -466.8147   147.2144 C0            1 RES     
    9038 C0         453.3792  -466.1213   148.4949 C0            1 RES     
    9039 C0         453.4849  -467.1092   149.6629 C0            1 RES     
    9040 C0         454.0259  -466.4578   150.9470 C0            1 RES     
    9041 C0         453.1093  -465.3538   151.4980 C0            1 RES     
    9042 C0         453.6551  -464.7899   152.8056 C0            1 RES     
    9043 H6         450.4657  -464.7094   143.7180 H6            1 RES     
    9044 H6         451.3528  -463.9918   142.4093 H6            1 RES     
    9045 H6         453.4915  -465.0439   143.4930 H6            1 RES     
    9046 H6         453.2443  -467.0151   142.2455 H6            1 RES     
    9047 H6         452.4157  -465.7288   141.3368 H6            1 RES     
    9048 H6         451.0797  -468.0175   142.8967 H6            1 RES     
    9049 H6         451.4006  -467.9501   141.1562 H6            1 RES     
    9050 H6         449.3950  -466.1913   142.6706 H6            1 RES     
    9051 H6         449.0578  -467.5426   141.5827 H6            1 RES     
    9052 H6         450.3121  -464.8449   140.7410 H6            1 RES     
    9053 H6         448.6291  -465.3859   140.4937 H6            1 RES     
    9054 H6         451.1503  -466.6838   139.2601 H6            1 RES     
    9055 H6         449.4483  -467.2498   139.0217 H6            1 RES     
    9056 H6         448.8698  -465.0273   138.0130 H6            1 RES     
    9057 H6         450.2270  -465.8252   137.1305 H6            1 RES     
    9058 H6         450.5717  -464.4687   138.2690 H6            1 RES     
    9059 H6         453.1076  -467.2525   144.5793 H6            1 RES     
    9060 H6         451.3749  -466.8449   144.8629 H6            1 RES     
    9061 H6         453.8313  -465.3638   145.9503 H6            1 RES     
    9062 H6         452.0773  -465.0253   146.3631 H6            1 RES     
    9063 H6         451.9010  -467.2723   147.3800 H6            1 RES     
    9064 H6         453.6239  -467.6156   146.9411 H6            1 RES     
    9065 H6         454.3789  -465.6662   148.3140 H6            1 RES     
    9066 H6         452.6568  -465.3162   148.7426 H6            1 RES     
    9067 H6         452.4892  -467.5608   149.8649 H6            1 RES     
    9068 H6         454.1852  -467.9243   149.3756 H6            1 RES     
    9069 H6         455.0391  -466.0417   150.7522 H6            1 RES     
    9070 H6         454.1207  -467.2565   151.7150 H6            1 RES     
    9071 H6         452.0949  -465.7695   151.6814 H6            1 RES     
    9072 H6         453.0307  -464.5162   150.7743 H6            1 RES     
    9073 H6         452.9744  -463.9964   153.1798 H6            1 RES     
    9074 H6         453.7243  -465.5907   153.5721 H6            1 RES     
    9075 H6         454.6619  -464.3486   152.6442 H6            1 RES     
    9076 C0         463.6596  -462.6891   149.5565 C0            1 RES     
    9077 C1         462.1411  -462.8727   149.6749 C1            1 RES     
    9078 C1         461.7477  -463.2294   150.9177 C1            1 RES     
    9079 S2         460.0887  -463.3999   151.0362 S2            1 RES     
    9080 C1         459.8500  -462.9826   149.3994 C1            1 RES     
    9081 C1         461.0780  -462.7135   148.7840 C1            1 RES     
    9082 C1         462.9025  -463.3368   151.7335 C1            1 RES     
    9083 C1         464.0211  -463.0717   150.9969 C1            1 RES     
    9084 C1         465.1982  -463.2004   151.7411 C1            1 RES     
    9085 C1         464.9246  -463.5866   153.0784 C1            1 RES     
    9086 S2         463.2386  -463.7180   153.3126 S2            1 RES     
    9087 H3         461.1901  -462.4201   147.7495 H3            1 RES     
    9088 H3         466.1797  -463.0344   151.3231 H3            1 RES     
    9089 N4         466.3369  -464.1926   156.5215 N4            1 RES     
    9090 C1         465.4778  -463.8813   155.5094 C1            1 RES     
    9091 C1         465.8970  -463.9033   154.1589 C1            1 RES     
    9092 C1         467.2290  -464.2785   153.9074 C1            1 RES     
    9093 N4         467.7772  -464.3971   152.6717 N4            1 RES     
    9094 S2         469.3142  -464.9049   153.0057 S2            1 RES     
    9095 N4         469.3492  -464.9952   154.6543 N4            1 RES     
    9096 C1         468.0927  -464.6143   154.9884 C1            1 RES     
    9097 C1         467.6271  -464.5574   156.2950 C1            1 RES     
    9098 H5         464.4658  -463.6031   155.7699 H5            1 RES     
    9099 C0         463.8196  -461.1391   149.3166 C0            1 RES     
    9100 C0         465.1226  -460.2658   149.3661 C0            1 RES     
    9101 C0         464.7296  -458.7607   149.5966 C0            1 RES     
    9102 C0         464.1491  -457.9116   148.4269 C0            1 RES     
    9103 C0         462.7635  -458.2699   147.8506 C0            1 RES     
    9104 C0         461.6100  -458.3192   148.8711 C0            1 RES     
    9105 C0         461.3457  -456.9696   149.5516 C0            1 RES     
    9106 C0         460.1581  -457.0667   150.5068 C0            1 RES     
    9107 C0         466.0652  -460.3231   148.1300 C0            1 RES     
    9108 C0         467.0784  -461.4640   148.1264 C0            1 RES     
    9109 C0         467.8644  -461.4855   146.8024 C0            1 RES     
    9110 C0         468.8551  -462.6585   146.7384 C0            1 RES     
    9111 C0         469.4470  -462.7931   145.3245 C0            1 RES     
    9112 C0         470.2962  -464.0621   145.1254 C0            1 RES     
    9113 C0         469.4577  -465.3535   145.2051 C0            1 RES     
    9114 C0         470.2944  -466.5891   144.8890 C0            1 RES     
    9115 H6         463.2959  -460.9213   148.3752 H6            1 RES     
    9116 H6         463.2155  -460.7127   150.1476 H6            1 RES     
    9117 H6         465.6855  -460.5391   150.2863 H6            1 RES     
    9118 H6         465.6713  -458.2393   149.8810 H6            1 RES     
    9119 H6         464.0677  -458.6693   150.4845 H6            1 RES     
    9120 H6         464.8742  -457.8999   147.5861 H6            1 RES     
    9121 H6         464.0904  -456.8650   148.7941 H6            1 RES     
    9122 H6         462.8179  -459.2272   147.3064 H6            1 RES     
    9123 H6         462.5096  -457.5148   147.0749 H6            1 RES     
    9124 H6         461.8070  -459.0872   149.6414 H6            1 RES     
    9125 H6         460.6907  -458.6222   148.3234 H6            1 RES     
    9126 H6         462.2352  -456.6504   150.1333 H6            1 RES     
    9127 H6         461.1231  -456.2018   148.7793 H6            1 RES     
    9128 H6         459.2411  -457.3666   149.9559 H6            1 RES     
    9129 H6         459.9797  -456.0791   150.9819 H6            1 RES     
    9130 H6         460.3644  -457.8130   151.3037 H6            1 RES     
    9131 H6         466.7041  -459.4114   148.1128 H6            1 RES     
    9132 H6         465.4435  -460.3146   147.2076 H6            1 RES     
    9133 H6         467.7710  -461.3589   148.9898 H6            1 RES     
    9134 H6         466.5439  -462.3983   148.2306 H6            1 RES     
    9135 H6         467.1235  -461.6030   145.9801 H6            1 RES     
    9136 H6         468.4105  -460.5289   146.6509 H6            1 RES     
    9137 H6         469.6630  -462.5325   147.4910 H6            1 RES     
    9138 H6         468.3145  -463.5788   146.9913 H6            1 RES     
    9139 H6         468.6287  -462.8149   144.5707 H6            1 RES     
    9140 H6         470.0742  -461.8973   145.1210 H6            1 RES     
    9141 H6         471.1234  -464.0893   145.8666 H6            1 RES     
    9142 H6         470.7402  -464.0066   144.1074 H6            1 RES     
    9143 H6         468.6228  -465.3001   144.4716 H6            1 RES     
    9144 H6         469.0366  -465.4855   146.2192 H6            1 RES     
    9145 H6         469.6547  -467.4932   144.9499 H6            1 RES     
    9146 H6         470.7146  -466.5200   143.8628 H6            1 RES     
    9147 H6         471.1252  -466.6892   145.6212 H6            1 RES     
    9148 C0         464.1303  -463.6199   148.3666 C0            1 RES     
    9149 C0         465.2757  -464.6828   148.4512 C0            1 RES     
    9150 C0         465.9268  -464.8953   147.0403 C0            1 RES     
    9151 C0         465.1971  -465.6890   145.9286 C0            1 RES     
    9152 C0         463.9533  -465.0489   145.2789 C0            1 RES     
    9153 C0         464.1605  -463.6449   144.6726 C0            1 RES     
    9154 C0         465.2324  -463.5911   143.5763 C0            1 RES     
    9155 C0         465.3364  -462.1825   142.9950 C0            1 RES     
    9156 C0         464.9123  -466.0867   149.0180 C0            1 RES     
    9157 C0         464.5722  -466.1166   150.4985 C0            1 RES     
    9158 C0         464.4065  -467.5394   151.0339 C0            1 RES     
    9159 C0         464.1164  -467.4892   152.5383 C0            1 RES     
    9160 C0         463.9477  -468.8959   153.1251 C0            1 RES     
    9161 C0         463.7203  -468.8833   154.6464 C0            1 RES     
    9162 C0         462.4232  -468.1691   155.0585 C0            1 RES     
    9163 C0         462.2109  -468.2451   156.5667 C0            1 RES     
    9164 H6         463.2635  -464.1368   147.9194 H6            1 RES     
    9165 H6         464.4235  -462.8849   147.6006 H6            1 RES     
    9166 H6         466.0820  -464.2642   149.0847 H6            1 RES     
    9167 H6         466.8642  -465.4634   147.2263 H6            1 RES     
    9168 H6         466.2204  -463.9245   146.6066 H6            1 RES     
    9169 H6         464.9349  -466.7010   146.2987 H6            1 RES     
    9170 H6         465.9381  -465.8465   145.1155 H6            1 RES     
    9171 H6         463.1250  -465.0089   146.0064 H6            1 RES     
    9172 H6         463.6134  -465.7295   144.4684 H6            1 RES     
    9173 H6         464.4254  -462.9150   145.4574 H6            1 RES     
    9174 H6         463.1886  -463.3239   144.2369 H6            1 RES     
    9175 H6         466.2235  -463.8657   143.9945 H6            1 RES     
    9176 H6         464.9723  -464.3015   142.7622 H6            1 RES     
    9177 H6         464.3668  -461.8769   142.5463 H6            1 RES     
    9178 H6         466.1169  -462.1583   142.2062 H6            1 RES     
    9179 H6         465.6123  -461.4557   143.7896 H6            1 RES     
    9180 H6         465.8103  -466.7335   148.8990 H6            1 RES     
    9181 H6         464.0793  -466.5378   148.4364 H6            1 RES     
    9182 H6         465.4116  -465.6529   151.0540 H6            1 RES     
    9183 H6         463.6236  -465.5777   150.6558 H6            1 RES     
    9184 H6         463.5719  -468.0451   150.5018 H6            1 RES     
    9185 H6         465.3450  -468.1134   150.8626 H6            1 RES     
    9186 H6         464.9584  -466.9789   153.0576 H6            1 RES     
    9187 H6         463.1888  -466.8999   152.6918 H6            1 RES     
    9188 H6         463.0994  -469.4126   152.6256 H6            1 RES     
    9189 H6         464.8752  -469.4767   152.9260 H6            1 RES     
    9190 H6         464.5893  -468.4011   155.1463 H6            1 RES     
    9191 H6         463.6669  -469.9406   154.9870 H6            1 RES     
    9192 H6         461.5579  -468.6458   154.5491 H6            1 RES     
    9193 H6         462.4627  -467.0969   154.7755 H6            1 RES     
    9194 H6         461.2687  -467.7224   156.8352 H6            1 RES     
    9195 H6         462.1362  -469.3042   156.8931 H6            1 RES     
    9196 H6         463.0540  -467.7557   157.0995 H6            1 RES     
    9197 C0         471.8314  -464.6744   159.6901 C0            1 RES     
    9198 C1         470.4981  -464.9263   158.9743 C1            1 RES     
    9199 C1         469.7115  -465.8153   159.6205 C1            1 RES     
    9200 S2         468.2524  -466.0588   158.8414 S2            1 RES     
    9201 C1         468.6396  -464.9520   157.6023 C1            1 RES     
    9202 C1         469.9097  -464.4058   157.8201 C1            1 RES     
    9203 C1         470.3996  -466.2536   160.7803 C1            1 RES     
    9204 C1         471.6265  -465.6586   160.8483 C1            1 RES     
    9205 C1         472.3696  -466.0830   161.9546 C1            1 RES     
    9206 C1         471.6546  -467.0384   162.7217 C1            1 RES     
    9207 S2         470.1135  -467.2999   162.0353 S2            1 RES     
    9208 H3         470.3771  -463.6738   157.1763 H3            1 RES     
    9209 H3         473.3651  -465.7236   162.1677 H3            1 RES     
    9210 N4         471.5707  -469.1034   165.8754 N4            1 RES     
    9211 C1         471.1759  -468.3878   164.7839 C1            1 RES     
    9212 C1         472.1206  -467.7871   163.9198 C1            1 RES     
    9213 C1         473.4804  -467.9776   164.2254 C1            1 RES     
    9214 N4         474.5120  -467.5120   163.4768 N4            1 RES     
    9215 S2         475.8338  -468.0807   164.2901 S2            1 RES     
    9216 N4         475.1859  -468.9059   165.5655 N4            1 RES     
    9217 C1         473.8558  -468.7460   165.3636 C1            1 RES     
    9218 C1         472.8807  -469.2968   166.1841 C1            1 RES     
    9219 H5         470.1150  -468.2806   164.6035 H5            1 RES     
    9220 C0         471.7045  -463.1802   160.1771 C0            1 RES     
    9221 C0         472.6144  -462.3943   161.1857 C0            1 RES     
    9222 C0         471.8154  -461.1654   161.7556 C0            1 RES     
    9223 C0         471.6031  -459.8927   160.8832 C0            1 RES     
    9224 C0         470.7223  -459.9832   159.6196 C0            1 RES     
    9225 C0         469.2931  -460.5149   159.8404 C0            1 RES     
    9226 C0         468.4524  -459.6254   160.7658 C0            1 RES     
    9227 C0         467.0324  -460.1710   160.9005 C0            1 RES     
    9228 C0         473.9762  -461.8649   160.6522 C0            1 RES     
    9229 C0         475.1342  -462.8573   160.7022 C0            1 RES     
    9230 C0         476.3880  -462.2598   160.0374 C0            1 RES     
    9231 C0         477.5596  -463.2542   160.0166 C0            1 RES     
    9232 C0         478.7089  -462.7213   159.1434 C0            1 RES     
    9233 C0         479.8370  -463.7434   158.9109 C0            1 RES     
    9234 C0         479.3775  -464.9500   158.0683 C0            1 RES     
    9235 C0         480.5364  -465.8897   157.7508 C0            1 RES     
    9236 H6         471.5949  -462.5723   159.2681 H6            1 RES     
    9237 H6         470.7227  -463.1896   160.6997 H6            1 RES     
    9238 H6         472.7804  -463.0412   162.0758 H6            1 RES     
    9239 H6         472.3934  -460.8076   162.6373 H6            1 RES     
    9240 H6         470.8385  -461.5006   162.1655 H6            1 RES     
    9241 H6         472.5907  -459.4855   160.5806 H6            1 RES     
    9242 H6         471.1471  -459.1269   161.5460 H6            1 RES     
    9243 H6         471.2284  -460.5894   158.8503 H6            1 RES     
    9244 H6         470.6503  -458.9650   159.1787 H6            1 RES     
    9245 H6         469.3207  -461.5436   160.2445 H6            1 RES     
    9246 H6         468.7944  -460.5584   158.8473 H6            1 RES     
    9247 H6         468.9067  -459.5835   161.7774 H6            1 RES     
    9248 H6         468.4034  -458.5966   160.3477 H6            1 RES     
    9249 H6         466.5365  -460.2102   159.9071 H6            1 RES     
    9250 H6         466.4402  -459.5093   161.5671 H6            1 RES     
    9251 H6         467.0517  -461.1921   161.3382 H6            1 RES     
    9252 H6         474.3251  -461.0296   161.3006 H6            1 RES     
    9253 H6         473.8227  -461.4544   159.6297 H6            1 RES     
    9254 H6         475.3478  -463.1382   161.7565 H6            1 RES     
    9255 H6         474.8450  -463.7498   160.1641 H6            1 RES     
    9256 H6         476.1178  -462.0097   158.9869 H6            1 RES     
    9257 H6         476.7021  -461.3260   160.5526 H6            1 RES     
    9258 H6         477.9159  -463.4637   161.0482 H6            1 RES     
    9259 H6         477.1986  -464.2015   159.5976 H6            1 RES     
    9260 H6         478.3192  -462.4186   158.1460 H6            1 RES     
    9261 H6         479.1303  -461.8162   159.6338 H6            1 RES     
    9262 H6         480.2515  -464.0839   159.8838 H6            1 RES     
    9263 H6         480.6439  -463.2235   158.3496 H6            1 RES     
    9264 H6         478.9468  -464.5898   157.1077 H6            1 RES     
    9265 H6         478.6105  -465.5358   158.6082 H6            1 RES     
    9266 H6         480.1666  -466.7379   157.1392 H6            1 RES     
    9267 H6         481.3228  -465.3544   157.1767 H6            1 RES     
    9268 H6         480.9752  -466.2911   158.6903 H6            1 RES     
    9269 C0         472.9690  -464.9555   158.6269 C0            1 RES     
    9270 C0         474.1864  -465.9154   158.8403 C0            1 RES     
    9271 C0         475.4047  -465.4519   157.9682 C0            1 RES     
    9272 C0         475.4279  -465.6736   156.4356 C0            1 RES     
    9273 C0         474.4649  -464.8374   155.5683 C0            1 RES     
    9274 C0         474.5696  -463.3067   155.7344 C0            1 RES     
    9275 C0         475.9588  -462.7385   155.4161 C0            1 RES     
    9276 C0         475.9616  -461.2173   155.5536 C0            1 RES     
    9277 C0         473.9620  -467.4317   158.5673 C0            1 RES     
    9278 C0         473.0434  -468.1356   159.5518 C0            1 RES     
    9279 C0         473.0095  -469.6501   159.3429 C0            1 RES     
    9280 C0         472.1054  -470.2923   160.4013 C0            1 RES     
    9281 C0         472.0432  -471.8157   160.2375 C0            1 RES     
    9282 C0         471.1957  -472.4976   161.3251 C0            1 RES     
    9283 C0         469.7178  -472.0768   161.2932 C0            1 RES     
    9284 C0         468.9101  -472.8314   162.3438 C0            1 RES     
    9285 H6         472.5244  -465.2340   157.6557 H6            1 RES     
    9286 H6         473.3757  -463.9471   158.4518 H6            1 RES     
    9287 H6         474.5224  -465.8101   159.8905 H6            1 RES     
    9288 H6         476.2797  -466.0211   158.3508 H6            1 RES     
    9289 H6         475.6146  -464.3835   158.1448 H6            1 RES     
    9290 H6         475.2821  -466.7492   156.2086 H6            1 RES     
    9291 H6         476.4579  -465.4294   156.0973 H6            1 RES     
    9292 H6         473.4229  -465.1496   155.7517 H6            1 RES     
    9293 H6         474.6738  -465.0855   154.5050 H6            1 RES     
    9294 H6         474.2944  -463.0047   156.7601 H6            1 RES     
    9295 H6         473.8292  -462.8457   155.0440 H6            1 RES     
    9296 H6         476.7123  -463.1498   156.1201 H6            1 RES     
    9297 H6         476.2460  -463.0097   154.3774 H6            1 RES     
    9298 H6         475.2324  -460.7641   154.8482 H6            1 RES     
    9299 H6         476.9726  -460.8212   155.3235 H6            1 RES     
    9300 H6         475.6925  -460.9223   156.5910 H6            1 RES     
    9301 H6         474.9508  -467.9341   158.6612 H6            1 RES     
    9302 H6         473.5884  -467.5899   157.5324 H6            1 RES     
    9303 H6         473.4306  -467.9541   160.5742 H6            1 RES     
    9304 H6         472.0197  -467.7479   159.4217 H6            1 RES     
    9305 H6         472.6265  -469.8794   158.3250 H6            1 RES     
    9306 H6         474.0386  -470.0630   159.4435 H6            1 RES     
    9307 H6         472.4992  -470.0528   161.4145 H6            1 RES     
    9308 H6         471.0898  -469.8574   160.2979 H6            1 RES     
    9309 H6         471.6370  -472.0699   159.2343 H6            1 RES     
    9310 H6         473.0761  -472.2223   160.3083 H6            1 RES     
    9311 H6         471.6281  -472.2739   162.3255 H6            1 RES     
    9312 H6         471.2558  -473.5955   161.1589 H6            1 RES     
    9313 H6         469.2914  -472.2912   160.2894 H6            1 RES     
    9314 H6         469.6176  -470.9918   161.5036 H6            1 RES     
    9315 H6         467.8486  -472.5082   162.2978 H6            1 RES     
    9316 H6         468.9579  -473.9249   162.1553 H6            1 RES     
    9317 H6         469.3041  -472.6167   163.3601 H6            1 RES     
    9318 C0         475.1402  -470.8404   170.8455 C0            1 RES     
    9319 C1         474.3391  -470.7717   169.5390 C1            1 RES     
    9320 C1         473.5889  -471.8745   169.3210 C1            1 RES     
    9321 S2         472.7028  -471.7727   167.9069 S2            1 RES     
    9322 C1         473.3041  -470.2167   167.5496 C1            1 RES     
    9323 C1         474.1914  -469.7991   168.5483 C1            1 RES     
    9324 C1         473.8019  -472.7741   170.3962 C1            1 RES     
    9325 C1         474.7035  -472.2463   171.2751 C1            1 RES     
    9326 C1         474.9838  -473.1081   172.3405 C1            1 RES     
    9327 C1         474.2606  -474.3231   172.2266 C1            1 RES     
    9328 S2         473.2677  -474.2811   170.8384 S2            1 RES     
    9329 H3         474.6992  -468.8447   168.5525 H3            1 RES     
    9330 H3         475.6777  -472.8612   173.1300 H3            1 RES     
    9331 N4         473.3392  -477.5923   173.8637 N4            1 RES     
    9332 C1         473.2875  -476.4697   173.0915 C1            1 RES     
    9333 C1         474.3371  -475.5218   173.1043 C1            1 RES     
    9334 C1         475.4405  -475.7988   173.9314 C1            1 RES     
    9335 N4         476.5490  -475.0216   174.0251 N4            1 RES     
    9336 S2         477.4936  -475.8663   175.0864 S2            1 RES     
    9337 N4         476.5822  -477.1936   175.4538 N4            1 RES     
    9338 C1         475.4679  -476.9901   174.7106 C1            1 RES     
    9339 C1         474.3985  -477.8744   174.6681 C1            1 RES     
    9340 H5         472.4118  -476.3168   172.4757 H5            1 RES     
    9341 C0         474.4675  -469.7312   171.7417 C0            1 RES     
    9342 C0         474.6474  -469.4658   173.2780 C0            1 RES     
    9343 C0         473.4153  -468.6460   173.8101 C0            1 RES     
    9344 C0         473.2977  -467.1216   173.5131 C0            1 RES     
    9345 C0         473.0862  -466.6510   172.0591 C0            1 RES     
    9346 C0         471.8702  -467.2576   171.3327 C0            1 RES     
    9347 C0         470.5314  -466.9021   171.9928 C0            1 RES     
    9348 C0         469.3634  -467.4819   171.1980 C0            1 RES     
    9349 C0         475.9378  -468.7214   173.7254 C0            1 RES     
    9350 C0         477.1641  -469.6025   173.9449 C0            1 RES     
    9351 C0         478.3998  -468.7405   174.2631 C0            1 RES     
    9352 C0         479.6685  -469.5910   174.4330 C0            1 RES     
    9353 C0         480.9166  -468.6947   174.5120 C0            1 RES     
    9354 C0         482.2439  -469.4752   174.4840 C0            1 RES     
    9355 C0         482.4870  -470.1805   173.1347 C0            1 RES     
    9356 C0         483.8576  -470.8483   173.0869 C0            1 RES     
    9357 H6         474.6132  -468.7806   171.2097 H6            1 RES     
    9358 H6         473.3901  -469.9984   171.6708 H6            1 RES     
    9359 H6         474.5683  -470.4413   173.8075 H6            1 RES     
    9360 H6         473.4609  -468.7125   174.9206 H6            1 RES     
    9361 H6         472.4674  -469.1526   173.5278 H6            1 RES     
    9362 H6         474.1922  -466.5991   173.9127 H6            1 RES     
    9363 H6         472.4359  -466.7489   174.1066 H6            1 RES     
    9364 H6         473.9990  -466.8321   171.4679 H6            1 RES     
    9365 H6         472.9685  -465.5454   172.0706 H6            1 RES     
    9366 H6         471.9672  -468.3569   171.2666 H6            1 RES     
    9367 H6         471.8665  -466.8587   170.2946 H6            1 RES     
    9368 H6         470.4889  -467.3118   173.0232 H6            1 RES     
    9369 H6         470.4216  -465.7969   172.0375 H6            1 RES     
    9370 H6         469.3612  -467.0790   170.1626 H6            1 RES     
    9371 H6         468.4057  -467.2069   171.6880 H6            1 RES     
    9372 H6         469.4371  -468.5898   171.1572 H6            1 RES     
    9373 H6         475.7688  -468.2619   174.7254 H6            1 RES     
    9374 H6         476.1402  -467.8966   173.0069 H6            1 RES     
    9375 H6         476.9699  -470.3249   174.7674 H6            1 RES     
    9376 H6         477.3521  -470.1615   173.0383 H6            1 RES     
    9377 H6         478.5502  -468.0487   173.4042 H6            1 RES     
    9378 H6         478.2335  -468.1337   175.1797 H6            1 RES     
    9379 H6         479.5916  -470.2361   175.3346 H6            1 RES     
    9380 H6         479.7562  -470.2544   173.5638 H6            1 RES     
    9381 H6         480.9277  -467.9827   173.6569 H6            1 RES     
    9382 H6         480.8615  -468.0999   175.4503 H6            1 RES     
    9383 H6         482.2738  -470.2093   175.3174 H6            1 RES     
    9384 H6         483.0635  -468.7393   174.6363 H6            1 RES     
    9385 H6         482.4329  -469.4347   172.3108 H6            1 RES     
    9386 H6         481.7268  -470.9645   172.9597 H6            1 RES     
    9387 H6         483.9957  -471.3364   172.1005 H6            1 RES     
    9388 H6         484.6611  -470.0935   173.2250 H6            1 RES     
    9389 H6         483.9374  -471.6210   173.8824 H6            1 RES     
    9390 C0         476.6523  -470.5842   170.4562 C0            1 RES     
    9391 C0         477.8534  -471.5088   170.8453 C0            1 RES     
    9392 C0         479.1779  -470.6734   170.9320 C0            1 RES     
    9393 C0         479.9015  -470.1775   169.6557 C0            1 RES     
    9394 C0         479.2297  -469.0618   168.8295 C0            1 RES     
    9395 C0         478.8868  -467.7696   169.6006 C0            1 RES     
    9396 C0         480.1005  -467.0874   170.2451 C0            1 RES     
    9397 C0         479.6830  -465.7931   170.9406 C0            1 RES     
    9398 C0         478.1337  -472.7425   169.9378 C0            1 RES     
    9399 C0         477.0804  -473.8362   169.9923 C0            1 RES     
    9400 C0         477.4995  -475.0930   169.2283 C0            1 RES     
    9401 C0         476.4130  -476.1648   169.3716 C0            1 RES     
    9402 C0         476.7903  -477.4504   168.6259 C0            1 RES     
    9403 C0         475.7502  -478.5696   168.8043 C0            1 RES     
    9404 C0         474.3725  -478.2137   168.2231 C0            1 RES     
    9405 C0         473.4002  -479.3800   168.3637 C0            1 RES     
    9406 H6         476.7424  -470.4035   169.3710 H6            1 RES     
    9407 H6         476.8423  -469.5967   170.9051 H6            1 RES     
    9408 H6         477.6761  -471.8822   171.8729 H6            1 RES     
    9409 H6         479.9152  -471.3340   171.4380 H6            1 RES     
    9410 H6         479.0323  -469.7958   171.5842 H6            1 RES     
    9411 H6         480.1262  -471.0372   168.9922 H6            1 RES     
    9412 H6         480.8869  -469.7833   169.9850 H6            1 RES     
    9413 H6         478.3157  -469.4468   168.3467 H6            1 RES     
    9414 H6         479.9226  -468.7974   168.0014 H6            1 RES     
    9415 H6         478.1391  -467.9705   170.3877 H6            1 RES     
    9416 H6         478.4235  -467.0633   168.8769 H6            1 RES     
    9417 H6         480.5577  -467.7553   171.0050 H6            1 RES     
    9418 H6         480.8569  -466.8530   169.4654 H6            1 RES     
    9419 H6         479.2377  -465.0867   170.2075 H6            1 RES     
    9420 H6         480.5698  -465.3129   171.4040 H6            1 RES     
    9421 H6         478.9374  -466.0054   171.7372 H6            1 RES     
    9422 H6         479.0771  -473.2103   170.2984 H6            1 RES     
    9423 H6         478.2842  -472.4242   168.8834 H6            1 RES     
    9424 H6         476.9416  -474.1279   171.0524 H6            1 RES     
    9425 H6         476.1492  -473.4551   169.5421 H6            1 RES     
    9426 H6         477.6516  -474.8459   168.1553 H6            1 RES     
    9427 H6         478.4540  -475.4831   169.6482 H6            1 RES     
    9428 H6         476.2699  -476.4005   170.4501 H6            1 RES     
    9429 H6         475.4662  -475.7535   168.9645 H6            1 RES     
    9430 H6         476.9217  -477.2327   167.5435 H6            1 RES     
    9431 H6         477.7593  -477.8214   169.0267 H6            1 RES     
    9432 H6         475.6501  -478.8126   169.8853 H6            1 RES     
    9433 H6         476.1342  -479.4720   168.2800 H6            1 RES     
    9434 H6         474.4771  -477.9607   167.1458 H6            1 RES     
    9435 H6         473.9378  -477.3437   168.7575 H6            1 RES     
    9436 H6         472.4156  -479.0954   167.9364 H6            1 RES     
    9437 H6         473.7820  -480.2687   167.8177 H6            1 RES     
    9438 H6         473.2620  -479.6392   169.4352 H6            1 RES     
    9439 C0         474.7604  -481.3071   178.8277 C0            1 RES     
    9440 C1         474.5990  -480.6733   177.4400 C1            1 RES     
    9441 C1         474.2983  -481.5751   176.4794 C1            1 RES     
    9442 S2         474.1002  -480.8651   174.9788 S2            1 RES     
    9443 C1         474.4074  -479.3024   175.5904 C1            1 RES     
    9444 C1         474.6594  -479.3615   176.9659 C1            1 RES     
    9445 C1         474.2416  -482.8586   177.0797 C1            1 RES     
    9446 C1         474.5307  -482.7649   178.4107 C1            1 RES     
    9447 C1         474.5281  -484.0086   179.0505 C1            1 RES     
    9448 C1         474.2334  -485.0569   178.1414 C1            1 RES     
    9449 S2         473.9454  -484.4144   176.5861 S2            1 RES     
    9450 H3         474.8743  -478.5008   177.5838 H3            1 RES     
    9451 H3         474.7404  -484.1296   180.1021 H3            1 RES     
    9452 N4         473.5105  -488.7332   177.7179 N4            1 RES     
    9453 C1         473.5263  -487.3842   177.5197 C1            1 RES     
    9454 C1         474.2125  -486.5208   178.4051 C1            1 RES     
    9455 C1         474.8912  -487.1167   179.4835 C1            1 RES     
    9456 N4         475.6351  -486.4408   180.3952 N4            1 RES     
    9457 S2         476.2106  -487.6522   181.3612 S2            1 RES     
    9458 N4         475.5739  -489.0227   180.6950 N4            1 RES     
    9459 C1         474.8675  -488.5306   179.6489 C1            1 RES     
    9460 C1         474.1615  -489.3243   178.7550 C1            1 RES     
    9461 H5         472.9864  -486.9894   176.6699 H5            1 RES     
    9462 C0         473.5286  -480.7387   179.6312 C0            1 RES     
    9463 C0         472.9705  -481.1926   181.0259 C0            1 RES     
    9464 C0         471.4733  -480.7305   181.1604 C0            1 RES     
    9465 C0         471.1343  -479.2396   181.4578 C0            1 RES     
    9466 C0         471.4550  -478.1673   180.3958 C0            1 RES     
    9467 C0         470.8452  -478.4075   179.0013 C0            1 RES     
    9468 C0         469.3108  -478.4196   179.0054 C0            1 RES     
    9469 C0         468.7656  -478.6038   177.5908 C0            1 RES     
    9470 C0         473.7310  -480.7018   182.2909 C0            1 RES     
    9471 C0         474.9186  -481.5586   182.7196 C0            1 RES     
    9472 C0         475.6581  -480.9057   183.9019 C0            1 RES     
    9473 C0         476.8965  -481.7119   184.3241 C0            1 RES     
    9474 C0         477.7404  -480.9200   185.3380 C0            1 RES     
    9475 C0         479.0973  -481.5729   185.6604 C0            1 RES     
    9476 C0         480.0502  -481.5861   184.4484 C0            1 RES     
    9477 C0         481.4267  -482.1286   184.8196 C0            1 RES     
    9478 H6         473.6559  -479.6472   179.6510 H6            1 RES     
    9479 H6         472.6809  -480.9694   178.9489 H6            1 RES     
    9480 H6         472.9084  -482.3037   181.0269 H6            1 RES     
    9481 H6         471.0575  -481.2909   182.0280 H6            1 RES     
    9482 H6         470.8855  -481.0761   180.2831 H6            1 RES     
    9483 H6         471.6220  -478.9340   182.4073 H6            1 RES     
    9484 H6         470.0409  -479.1954   181.6481 H6            1 RES     
    9485 H6         472.5465  -478.0407   180.3060 H6            1 RES     
    9486 H6         471.0845  -477.1895   180.7737 H6            1 RES     
    9487 H6         471.2193  -479.3555   178.5730 H6            1 RES     
    9488 H6         471.1879  -477.5824   178.3389 H6            1 RES     
    9489 H6         468.9336  -479.2518   179.6351 H6            1 RES     
    9490 H6         468.9332  -477.4569   179.4130 H6            1 RES     
    9491 H6         469.1075  -477.7764   176.9329 H6            1 RES     
    9492 H6         467.6556  -478.6020   177.6157 H6            1 RES     
    9493 H6         469.1107  -479.5715   177.1677 H6            1 RES     
    9494 H6         473.0495  -480.7482   183.1702 H6            1 RES     
    9495 H6         474.0168  -479.6368   182.1436 H6            1 RES     
    9496 H6         474.5713  -482.5791   182.9920 H6            1 RES     
    9497 H6         475.6005  -481.6428   181.8844 H6            1 RES     
    9498 H6         475.9898  -479.8970   183.5679 H6            1 RES     
    9499 H6         474.9795  -480.7830   184.7740 H6            1 RES     
    9500 H6         476.5999  -482.6966   184.7453 H6            1 RES     
    9501 H6         477.4998  -481.9084   183.4292 H6            1 RES     
    9502 H6         477.9439  -479.8983   184.9471 H6            1 RES     
    9503 H6         477.1525  -480.8152   186.2765 H6            1 RES     
    9504 H6         478.9442  -482.6036   186.0457 H6            1 RES     
    9505 H6         479.5739  -480.9670   186.4618 H6            1 RES     
    9506 H6         480.1755  -480.5498   184.0632 H6            1 RES     
    9507 H6         479.6468  -482.2233   183.6395 H6            1 RES     
    9508 H6         482.0821  -482.1147   183.9250 H6            1 RES     
    9509 H6         481.8906  -481.4997   185.6094 H6            1 RES     
    9510 H6         481.3423  -483.1755   185.1846 H6            1 RES     
    9511 C0         476.1859  -480.8681   179.3560 C0            1 RES     
    9512 C0         477.2898  -481.8410   179.8887 C0            1 RES     
    9513 C0         478.2116  -481.1051   180.9224 C0            1 RES     
    9514 C0         479.2677  -480.0693   180.4640 C0            1 RES     
    9515 C0         478.7664  -478.7162   179.9194 C0            1 RES     
    9516 C0         477.8323  -477.9206   180.8555 C0            1 RES     
    9517 C0         478.4569  -477.5761   182.2139 C0            1 RES     
    9518 C0         477.4893  -476.7461   183.0553 C0            1 RES     
    9519 C0         478.2132  -482.5242   178.8376 C0            1 RES     
    9520 C0         477.5298  -483.5481   177.9470 C0            1 RES     
    9521 C0         478.5190  -484.3136   177.0671 C0            1 RES     
    9522 C0         477.7637  -485.3589   176.2384 C0            1 RES     
    9523 C0         478.7155  -486.1593   175.3413 C0            1 RES     
    9524 C0         477.9971  -487.2616   174.5445 C0            1 RES     
    9525 C0         476.9556  -486.7130   173.5562 C0            1 RES     
    9526 C0         476.3237  -487.8387   172.7445 C0            1 RES     
    9527 H6         476.6824  -480.2142   178.6182 H6            1 RES     
    9528 H6         475.9266  -480.1862   180.1810 H6            1 RES     
    9529 H6         476.7874  -482.6426   180.4646 H6            1 RES     
    9530 H6         478.7979  -481.9060   181.4230 H6            1 RES     
    9531 H6         477.5989  -480.6209   181.7014 H6            1 RES     
    9532 H6         479.9501  -480.5307   179.7215 H6            1 RES     
    9533 H6         479.8951  -479.8442   181.3532 H6            1 RES     
    9534 H6         478.2644  -478.8621   178.9480 H6            1 RES     
    9535 H6         479.6605  -478.0902   179.7085 H6            1 RES     
    9536 H6         476.8927  -478.4727   181.0322 H6            1 RES     
    9537 H6         477.5669  -476.9741   180.3349 H6            1 RES     
    9538 H6         478.6924  -478.5047   182.7748 H6            1 RES     
    9539 H6         479.3930  -476.9972   182.0602 H6            1 RES     
    9540 H6         477.2436  -475.7949   182.5360 H6            1 RES     
    9541 H6         477.9531  -476.5072   184.0349 H6            1 RES     
    9542 H6         476.5501  -477.3126   183.2359 H6            1 RES     
    9543 H6         478.9955  -483.0828   179.3987 H6            1 RES     
    9544 H6         478.7167  -481.7602   178.2064 H6            1 RES     
    9545 H6         477.0278  -484.2907   178.5986 H6            1 RES     
    9546 H6         476.8168  -483.0260   177.2882 H6            1 RES     
    9547 H6         479.0487  -483.6046   176.3946 H6            1 RES     
    9548 H6         479.2674  -484.8296   177.7100 H6            1 RES     
    9549 H6         477.2369  -486.0600   176.9239 H6            1 RES     
    9550 H6         477.0116  -484.8296   175.6174 H6            1 RES     
    9551 H6         479.2381  -485.4728   174.6401 H6            1 RES     
    9552 H6         479.4801  -486.6493   175.9837 H6            1 RES     
    9553 H6         477.5084  -487.9694   175.2501 H6            1 RES     
    9554 H6         478.7696  -487.8204   173.9721 H6            1 RES     
    9555 H6         477.4443  -485.9978   172.8595 H6            1 RES     
    9556 H6         476.1422  -486.1888   174.0994 H6            1 RES     
    9557 H6         475.5772  -487.4141   172.0404 H6            1 RES     
    9558 H6         477.1002  -488.3754   172.1593 H6            1 RES     
    9559 H6         475.8096  -488.5574   173.4179 H6            1 RES     
    9560 C0         473.5275  -494.2576   180.8708 C0            1 RES     
    9561 C1         473.8250  -493.0687   179.9481 C1            1 RES     
    9562 C1         474.1845  -493.4453   178.7009 C1            1 RES     
    9563 S2         474.4798  -492.1381   177.7012 S2            1 RES     
    9564 C1         474.1170  -491.0144   178.9324 C1            1 RES     
    9565 C1         473.7672  -491.6833   180.1111 C1            1 RES     
    9566 C1         474.1852  -494.8624   178.6496 C1            1 RES     
    9567 C1         473.8504  -495.3741   179.8702 C1            1 RES     
    9568 C1         473.8721  -496.7724   179.8916 C1            1 RES     
    9569 C1         474.2498  -497.3027   178.6312 C1            1 RES     
    9570 S2         474.5057  -496.0331   177.5190 S2            1 RES     
    9571 H3         473.4881  -491.1904   181.0319 H3            1 RES     
    9572 H3         473.6399  -497.3510   180.7730 H3            1 RES     
    9573 N4         474.6718  -500.4056   176.5310 N4            1 RES     
    9574 C1         474.4492  -499.1128   176.9030 C1            1 RES     
    9575 C1         474.4675  -498.7277   178.2638 C1            1 RES     
    9576 C1         474.7443  -499.7311   179.2099 C1            1 RES     
    9577 N4         474.8465  -499.5238   180.5471 N4            1 RES     
    9578 S2         475.2270  -501.0276   181.1176 S2            1 RES     
    9579 N4         475.2793  -501.9628   179.7575 N4            1 RES     
    9580 C1         474.9894  -501.0672   178.7833 C1            1 RES     
    9581 C1         474.9408  -501.3867   177.4331 C1            1 RES     
    9582 H5         474.2444  -498.3888   176.1263 H5            1 RES     
    9583 C0         471.9752  -494.1423   181.1214 C0            1 RES     
    9584 C0         471.0033  -495.1904   181.7692 C0            1 RES     
    9585 C0         469.5283  -494.8734   181.3251 C0            1 RES     
    9586 C0         468.7516  -493.6863   181.9681 C0            1 RES     
    9587 C0         469.2278  -492.2427   181.7042 C0            1 RES     
    9588 C0         469.3441  -491.8401   180.2215 C0            1 RES     
    9589 C0         468.0048  -491.8878   179.4743 C0            1 RES     
    9590 C0         468.1728  -491.4249   178.0287 C0            1 RES     
    9591 C0         471.0140  -495.3074   183.3202 C0            1 RES     
    9592 C0         472.0732  -496.2382   183.9035 C0            1 RES     
    9593 C0         472.0622  -496.1738   185.4419 C0            1 RES     
    9594 C0         473.1565  -497.0552   186.0643 C0            1 RES     
    9595 C0         473.2750  -496.7884   187.5749 C0            1 RES     
    9596 C0         474.4788  -497.4854   188.2357 C0            1 RES     
    9597 C0         475.8290  -496.9273   187.7430 C0            1 RES     
    9598 C0         477.0029  -497.5475   188.4942 C0            1 RES     
    9599 H6         471.8185  -493.1751   181.6194 H6            1 RES     
    9600 H6         471.5791  -494.0588   180.0853 H6            1 RES     
    9601 H6         471.2128  -496.1830   181.3117 H6            1 RES     
    9602 H6         468.9300  -495.7749   181.5876 H6            1 RES     
    9603 H6         469.4694  -494.7982   180.2181 H6            1 RES     
    9604 H6         468.7019  -493.8321   183.0678 H6            1 RES     
    9605 H6         467.7050  -493.7578   181.6030 H6            1 RES     
    9606 H6         470.1894  -492.0642   182.2131 H6            1 RES     
    9607 H6         468.5112  -491.5501   182.1974 H6            1 RES     
    9608 H6         470.0782  -492.4832   179.7020 H6            1 RES     
    9609 H6         469.7287  -490.7971   180.1864 H6            1 RES     
    9610 H6         467.6057  -492.9232   179.4641 H6            1 RES     
    9611 H6         467.2730  -491.2223   179.9815 H6            1 RES     
    9612 H6         468.5542  -490.3818   177.9976 H6            1 RES     
    9613 H6         467.1920  -491.4598   177.5094 H6            1 RES     
    9614 H6         468.8839  -492.0885   177.4916 H6            1 RES     
    9615 H6         470.0563  -495.7620   183.6609 H6            1 RES     
    9616 H6         471.0731  -494.2848   183.7540 H6            1 RES     
    9617 H6         471.8967  -497.2792   183.5551 H6            1 RES     
    9618 H6         473.0435  -495.9200   183.5474 H6            1 RES     
    9619 H6         472.2539  -495.1158   185.7298 H6            1 RES     
    9620 H6         471.0698  -496.4742   185.8434 H6            1 RES     
    9621 H6         472.9526  -498.1304   185.8711 H6            1 RES     
    9622 H6         474.1101  -496.8120   185.5799 H6            1 RES     
    9623 H6         473.3759  -495.6960   187.7609 H6            1 RES     
    9624 H6         472.3381  -497.1327   188.0657 H6            1 RES     
    9625 H6         474.4264  -498.5821   188.0663 H6            1 RES     
    9626 H6         474.4109  -497.2966   189.3294 H6            1 RES     
    9627 H6         475.8557  -495.8263   187.9011 H6            1 RES     
    9628 H6         475.9714  -497.1389   186.6669 H6            1 RES     
    9629 H6         477.9520  -497.1155   188.1163 H6            1 RES     
    9630 H6         476.9234  -497.3333   189.5815 H6            1 RES     
    9631 H6         477.0231  -498.6479   188.3360 H6            1 RES     
    9632 C0         474.4443  -494.0725   182.1471 C0            1 RES     
    9633 C0         475.4138  -495.1557   182.7265 C0            1 RES     
    9634 C0         475.6053  -494.9459   184.2690 C0            1 RES     
    9635 C0         476.4765  -493.7910   184.8219 C0            1 RES     
    9636 C0         475.9480  -492.3497   184.6726 C0            1 RES     
    9637 C0         474.5454  -492.0850   185.2594 C0            1 RES     
    9638 C0         474.4325  -492.3778   186.7612 C0            1 RES     
    9639 C0         473.0327  -492.0403   187.2708 C0            1 RES     
    9640 C0         476.8292  -495.2685   182.0876 C0            1 RES     
    9641 C0         476.8536  -495.7943   180.6623 C0            1 RES     
    9642 C0         478.2733  -496.0563   180.1579 C0            1 RES     
    9643 C0         478.2137  -496.6308   178.7379 C0            1 RES     
    9644 C0         479.6164  -496.9172   178.1884 C0            1 RES     
    9645 C0         479.5891  -497.5561   176.7894 C0            1 RES     
    9646 C0         478.9683  -496.6437   175.7195 C0            1 RES     
    9647 C0         479.0284  -497.2948   174.3418 C0            1 RES     
    9648 H6         475.0359  -493.1445   182.0617 H6            1 RES     
    9649 H6         473.7054  -493.8436   182.9310 H6            1 RES     
    9650 H6         474.9209  -496.1424   182.6252 H6            1 RES     
    9651 H6         476.0954  -495.8731   184.6380 H6            1 RES     
    9652 H6         474.6243  -494.8805   184.7689 H6            1 RES     
    9653 H6         477.4975  -493.8510   184.3934 H6            1 RES     
    9654 H6         476.5936  -493.9781   185.9111 H6            1 RES     
    9655 H6         475.9565  -492.0520   183.6104 H6            1 RES     
    9656 H6         476.6699  -491.6758   185.1829 H6            1 RES     
    9657 H6         473.7808  -492.6786   184.7286 H6            1 RES     
    9658 H6         474.3097  -491.0117   185.0868 H6            1 RES     
    9659 H6         474.6209  -493.4541   186.9579 H6            1 RES     
    9660 H6         475.1780  -491.7708   187.3188 H6            1 RES     
    9661 H6         472.8124  -490.9630   187.1107 H6            1 RES     
    9662 H6         472.9652  -492.2597   188.3567 H6            1 RES     
    9663 H6         472.2702  -492.6485   186.7378 H6            1 RES     
    9664 H6         477.4072  -496.0024   182.6927 H6            1 RES     
    9665 H6         477.3554  -494.2903   182.1317 H6            1 RES     
    9666 H6         476.3149  -496.7625   180.6433 H6            1 RES     
    9667 H6         476.3863  -495.0471   180.0002 H6            1 RES     
    9668 H6         478.8531  -495.1080   180.1610 H6            1 RES     
    9669 H6         478.7768  -496.7900   180.8271 H6            1 RES     
    9670 H6         477.6290  -497.5780   178.7495 H6            1 RES     
    9671 H6         477.6945  -495.8953   178.0893 H6            1 RES     
    9672 H6         480.2074  -495.9760   178.1570 H6            1 RES     
    9673 H6         480.1280  -497.6271   178.8751 H6            1 RES     
    9674 H6         479.0308  -498.5174   176.8327 H6            1 RES     
    9675 H6         480.6398  -497.7778   176.5006 H6            1 RES     
    9676 H6         479.5211  -495.6799   175.6861 H6            1 RES     
    9677 H6         477.9025  -496.4406   175.9522 H6            1 RES     
    9678 H6         478.5743  -496.6149   173.5904 H6            1 RES     
    9679 H6         480.0829  -497.4911   174.0534 H6            1 RES     
    9680 H6         478.4643  -498.2519   174.3432 H6            1 RES     
    9681 C0         474.6612  -506.7567   176.8835 C0            1 RES     
    9682 C1         475.0303  -505.2726   176.7624 C1            1 RES     
    9683 C1         475.9633  -505.0361   175.8137 C1            1 RES     
    9684 S2         476.3351  -503.4118   175.6768 S2            1 RES     
    9685 C1         475.2283  -502.9750   176.8993 C1            1 RES     
    9686 C1         474.5813  -504.1123   177.3961 C1            1 RES     
    9687 C1         476.3225  -506.2764   175.2277 C1            1 RES     
    9688 C1         475.6334  -507.2923   175.8253 C1            1 RES     
    9689 C1         475.9757  -508.5482   175.3137 C1            1 RES     
    9690 C1         476.9668  -508.4426   174.3043 C1            1 RES     
    9691 S2         477.3608  -506.8017   174.0455 S2            1 RES     
    9692 H3         473.8293  -504.0956   178.1727 H3            1 RES     
    9693 H3         475.5361  -509.4680   175.6692 H3            1 RES     
    9694 N4         478.9646  -510.2498   171.6662 N4            1 RES     
    9695 C1         478.3049  -509.2704   172.3481 C1            1 RES     
    9696 C1         477.6517  -509.5420   173.5727 C1            1 RES     
    9697 C1         477.7303  -510.8582   174.0627 C1            1 RES     
    9698 N4         477.2026  -511.2756   175.2411 N4            1 RES     
    9699 S2         477.6503  -512.8658   175.2941 S2            1 RES     
    9700 N4         478.4957  -513.0834   173.8922 N4            1 RES     
    9701 C1         478.4431  -511.8509   173.3323 C1            1 RES     
    9702 C1         479.0499  -511.5264   172.1264 C1            1 RES     
    9703 H5         478.2837  -508.2783   171.9182 H5            1 RES     
    9704 C0         473.1712  -506.8026   176.3700 C0            1 RES     
    9705 C0         472.2962  -508.0523   176.0018 C0            1 RES     
    9706 C0         471.1208  -507.6025   175.0588 C0            1 RES     
    9707 C0         469.8870  -506.8525   175.6431 C0            1 RES     
    9708 C0         470.0720  -505.4351   176.2239 C0            1 RES     
    9709 C0         470.7075  -504.4030   175.2725 C0            1 RES     
    9710 C0         469.8659  -504.1382   174.0171 C0            1 RES     
    9711 C0         470.5164  -503.0680   173.1432 C0            1 RES     
    9712 C0         471.6749  -508.8577   177.1785 C0            1 RES     
    9713 C0         472.5738  -509.9272   177.7922 C0            1 RES     
    9714 C0         471.8958  -510.5657   179.0183 C0            1 RES     
    9715 C0         472.7970  -511.6080   179.6987 C0            1 RES     
    9716 C0         472.1958  -512.0506   181.0441 C0            1 RES     
    9717 C0         473.1327  -512.9433   181.8789 C0            1 RES     
    9718 C0         474.3888  -512.1921   182.3637 C0            1 RES     
    9719 C0         475.2428  -513.0579   183.2844 C0            1 RES     
    9720 H6         472.5930  -506.1690   177.0571 H6            1 RES     
    9721 H6         473.2452  -506.2687   175.3969 H6            1 RES     
    9722 H6         472.9093  -508.7256   175.3623 H6            1 RES     
    9723 H6         470.7008  -508.5386   174.6265 H6            1 RES     
    9724 H6         471.5214  -507.0361   174.1908 H6            1 RES     
    9725 H6         469.4114  -507.4809   176.4253 H6            1 RES     
    9726 H6         469.1447  -506.7751   174.8205 H6            1 RES     
    9727 H6         470.6536  -505.4841   177.1592 H6            1 RES     
    9728 H6         469.0719  -505.0570   176.5293 H6            1 RES     
    9729 H6         471.7221  -504.7248   174.9740 H6            1 RES     
    9730 H6         470.8104  -503.4484   175.8338 H6            1 RES     
    9731 H6         469.7676  -505.0660   173.4161 H6            1 RES     
    9732 H6         468.8531  -503.7909   174.3157 H6            1 RES     
    9733 H6         470.6148  -502.1152   173.7062 H6            1 RES     
    9734 H6         469.8883  -502.8867   172.2457 H6            1 RES     
    9735 H6         471.5234  -503.4005   172.8118 H6            1 RES     
    9736 H6         470.8016  -509.4389   176.8051 H6            1 RES     
    9737 H6         471.2992  -508.1407   177.9416 H6            1 RES     
    9738 H6         472.8150  -510.7018   177.0320 H6            1 RES     
    9739 H6         473.4971  -509.4603   178.1070 H6            1 RES     
    9740 H6         471.6896  -509.7482   179.7451 H6            1 RES     
    9741 H6         470.9297  -511.0377   178.7352 H6            1 RES     
    9742 H6         472.9565  -512.4840   179.0337 H6            1 RES     
    9743 H6         473.7781  -511.1504   179.8760 H6            1 RES     
    9744 H6         471.9454  -511.1583   181.6600 H6            1 RES     
    9745 H6         471.2508  -512.6009   180.8410 H6            1 RES     
    9746 H6         473.4195  -513.8458   181.2979 H6            1 RES     
    9747 H6         472.5641  -513.2711   182.7765 H6            1 RES     
    9748 H6         474.0833  -511.2813   182.9250 H6            1 RES     
    9749 H6         475.0203  -511.8909   181.5073 H6            1 RES     
    9750 H6         476.1298  -512.4803   183.6158 H6            1 RES     
    9751 H6         474.6609  -513.3604   184.1813 H6            1 RES     
    9752 H6         475.5891  -513.9671   182.7462 H6            1 RES     
    9753 C0         474.8763  -507.1479   178.4015 C0            1 RES     
    9754 C0         475.7347  -508.3535   178.9097 C0            1 RES     
    9755 C0         475.1973  -508.8596   180.2936 C0            1 RES     
    9756 C0         475.4491  -508.0600   181.5957 C0            1 RES     
    9757 C0         474.7083  -506.7194   181.7772 C0            1 RES     
    9758 C0         473.1709  -506.7808   181.6578 C0            1 RES     
    9759 C0         472.5042  -507.7235   182.6682 C0            1 RES     
    9760 C0         470.9847  -507.6850   182.5176 C0            1 RES     
    9761 C0         477.2693  -508.1329   179.0530 C0            1 RES     
    9762 C0         478.0208  -507.9566   177.7443 C0            1 RES     
    9763 C0         479.5375  -507.9298   177.9376 C0            1 RES     
    9764 C0         480.2248  -507.8013   176.5734 C0            1 RES     
    9765 C0         481.7516  -507.7761   176.7138 C0            1 RES     
    9766 C0         482.4736  -507.7137   175.3570 C0            1 RES     
    9767 C0         482.1687  -506.4306   174.5676 C0            1 RES     
    9768 C0         482.9608  -506.3868   173.2653 C0            1 RES     
    9769 H6         475.2088  -506.2683   178.9796 H6            1 RES     
    9770 H6         473.8435  -507.3150   178.7454 H6            1 RES     
    9771 H6         475.5816  -509.1987   178.2105 H6            1 RES     
    9772 H6         475.6892  -509.8420   180.4639 H6            1 RES     
    9773 H6         474.1124  -509.0497   180.2341 H6            1 RES     
    9774 H6         476.5374  -507.8964   181.7327 H6            1 RES     
    9775 H6         475.1335  -508.7166   182.4349 H6            1 RES     
    9776 H6         475.0959  -505.9735   181.0629 H6            1 RES     
    9777 H6         474.9621  -506.3328   182.7881 H6            1 RES     
    9778 H6         472.8693  -507.0874   180.6410 H6            1 RES     
    9779 H6         472.7831  -505.7512   181.8214 H6            1 RES     
    9780 H6         472.8412  -508.7678   182.4992 H6            1 RES     
    9781 H6         472.7745  -507.4174   183.7017 H6            1 RES     
    9782 H6         470.6042  -506.6571   182.7000 H6            1 RES     
    9783 H6         470.5169  -508.3732   183.2519 H6            1 RES     
    9784 H6         470.6894  -508.0037   181.4944 H6            1 RES     
    9785 H6         477.6918  -509.0477   179.5257 H6            1 RES     
    9786 H6         477.4778  -507.2686   179.7203 H6            1 RES     
    9787 H6         477.7884  -508.8236   177.0944 H6            1 RES     
    9788 H6         477.7160  -507.0017   177.2857 H6            1 RES     
    9789 H6         479.8173  -507.0724   178.5873 H6            1 RES     
    9790 H6         479.8677  -508.8751   178.4245 H6            1 RES     
    9791 H6         479.9343  -508.6643   175.9334 H6            1 RES     
    9792 H6         479.8718  -506.8640   176.0958 H6            1 RES     
    9793 H6         482.0576  -506.9092   177.3391 H6            1 RES     
    9794 H6         482.0758  -508.7078   177.2276 H6            1 RES     
    9795 H6         482.1960  -508.6032   174.7491 H6            1 RES     
    9796 H6         483.5669  -507.7568   175.5556 H6            1 RES     
    9797 H6         482.4367  -505.5435   175.1815 H6            1 RES     
    9798 H6         481.0904  -506.3790   174.3104 H6            1 RES     
    9799 H6         482.7215  -505.4511   172.7171 H6            1 RES     
    9800 H6         484.0512  -506.4073   173.4759 H6            1 RES     
    9801 H6         482.6948  -507.2536   172.6233 H6            1 RES     
    9802 C0         480.3153  -516.0722   169.4900 C0            1 RES     
    9803 C1         480.3364  -514.6858   170.1464 C1            1 RES     
    9804 C1         481.4981  -514.0247   169.9468 C1            1 RES     
    9805 S2         481.4949  -512.5060   170.6461 S2            1 RES     
    9806 C1         479.9051  -512.6946   171.2355 C1            1 RES     
    9807 C1         479.3993  -513.9481   170.8723 C1            1 RES     
    9808 C1         482.3555  -514.8574   169.1838 C1            1 RES     
    9809 C1         481.7413  -516.0491   168.9261 C1            1 RES     
    9810 C1         482.5560  -516.9298   168.2072 C1            1 RES     
    9811 C1         483.8253  -516.3565   167.9378 C1            1 RES     
    9812 S2         483.8894  -514.7674   168.5586 S2            1 RES     
    9813 H3         478.4087  -514.3015   171.1225 H3            1 RES     
    9814 H3         482.2396  -517.9207   167.9180 H3            1 RES     
    9815 N4         487.1202  -516.7293   166.1431 N4            1 RES     
    9816 C1         486.0216  -516.1795   166.7347 C1            1 RES     
    9817 C1         484.9956  -516.9903   167.2732 C1            1 RES     
    9818 C1         485.1690  -518.3836   167.1885 C1            1 RES     
    9819 N4         484.3070  -519.3007   167.6955 N4            1 RES     
    9820 S2         485.0535  -520.7323   167.3418 S2            1 RES     
    9821 N4         486.4390  -520.2731   166.5693 N4            1 RES     
    9822 C1         486.3379  -518.9222   166.5795 C1            1 RES     
    9823 C1         487.3027  -518.0737   166.0535 C1            1 RES     
    9824 H5         485.9498  -515.1010   166.7695 H5            1 RES     
    9825 C0         479.2425  -515.9150   168.3454 C0            1 RES     
    9826 C0         478.9314  -516.8827   167.1497 C0            1 RES     
    9827 C0         478.1979  -516.0820   166.0121 C0            1 RES     
    9828 C0         476.6937  -515.7058   166.1598 C0            1 RES     
    9829 C0         476.2718  -514.7004   167.2515 C0            1 RES     
    9830 C0         476.9856  -513.3354   167.2118 C0            1 RES     
    9831 C0         476.7205  -512.5508   165.9201 C0            1 RES     
    9832 C0         477.4053  -511.1866   165.9633 C0            1 RES     
    9833 C0         478.0804  -518.1472   167.4604 C0            1 RES     
    9834 C0         478.8595  -519.3577   167.9665 C0            1 RES     
    9835 C0         477.8982  -520.4970   168.3527 C0            1 RES     
    9836 C0         478.6446  -521.7134   168.9227 C0            1 RES     
    9837 C0         477.6533  -522.7301   169.5153 C0            1 RES     
    9838 C0         478.3295  -523.8822   170.2813 C0            1 RES     
    9839 C0         479.0425  -523.4029   171.5616 C0            1 RES     
    9840 C0         479.6036  -524.5718   172.3653 C0            1 RES     
    9841 H6         478.2950  -515.6740   168.8475 H6            1 RES     
    9842 H6         479.5933  -514.9972   167.8238 H6            1 RES     
    9843 H6         479.8986  -517.1798   166.6866 H6            1 RES     
    9844 H6         478.2371  -516.7308   165.1082 H6            1 RES     
    9845 H6         478.7819  -515.1754   165.7442 H6            1 RES     
    9846 H6         476.0955  -516.6306   166.3001 H6            1 RES     
    9847 H6         476.3760  -515.2817   165.1836 H6            1 RES     
    9848 H6         476.3946  -515.1538   168.2489 H6            1 RES     
    9849 H6         475.1786  -514.5242   167.1507 H6            1 RES     
    9850 H6         478.0753  -513.4641   167.3468 H6            1 RES     
    9851 H6         476.6103  -512.7358   168.0700 H6            1 RES     
    9852 H6         477.1102  -513.1085   165.0434 H6            1 RES     
    9853 H6         475.6263  -512.3993   165.7959 H6            1 RES     
    9854 H6         477.0259  -510.5894   166.8199 H6            1 RES     
    9855 H6         477.1946  -510.6334   165.0239 H6            1 RES     
    9856 H6         478.5049  -511.3103   166.0646 H6            1 RES     
    9857 H6         477.6142  -518.5165   166.5191 H6            1 RES     
    9858 H6         477.2579  -517.8614   168.1527 H6            1 RES     
    9859 H6         479.5770  -519.6991   167.1889 H6            1 RES     
    9860 H6         479.4214  -519.0627   168.8422 H6            1 RES     
    9861 H6         477.2153  -520.1014   169.1376 H6            1 RES     
    9862 H6         477.2867  -520.8118   167.4792 H6            1 RES     
    9863 H6         479.2744  -522.1901   168.1410 H6            1 RES     
    9864 H6         479.3176  -521.3631   169.7149 H6            1 RES     
    9865 H6         476.9609  -522.2188   170.2205 H6            1 RES     
    9866 H6         477.0447  -523.1505   168.6846 H6            1 RES     
    9867 H6         479.0413  -524.4176   169.6172 H6            1 RES     
    9868 H6         477.5296  -524.5933   170.5828 H6            1 RES     
    9869 H6         478.3208  -522.8516   172.2044 H6            1 RES     
    9870 H6         479.8863  -522.7327   171.3129 H6            1 RES     
    9871 H6         480.1005  -524.1864   173.2789 H6            1 RES     
    9872 H6         478.7863  -525.2603   172.6693 H6            1 RES     
    9873 H6         480.3508  -525.1311   171.7610 H6            1 RES     
    9874 C0         479.9517  -517.1025   170.6345 C0            1 RES     
    9875 C0         480.7725  -518.3878   170.9858 C0            1 RES     
    9876 C0         479.8357  -519.4770   171.6151 C0            1 RES     
    9877 C0         479.3128  -519.3472   173.0670 C0            1 RES     
    9878 C0         478.2700  -518.2508   173.3659 C0            1 RES     
    9879 C0         476.9920  -518.2867   172.5014 C0            1 RES     
    9880 C0         476.2047  -519.5993   172.6066 C0            1 RES     
    9881 C0         474.9320  -519.5316   171.7648 C0            1 RES     
    9882 C0         481.9999  -518.2208   171.9291 C0            1 RES     
    9883 C0         483.1701  -517.4547   171.3357 C0            1 RES     
    9884 C0         484.4068  -517.4835   172.2349 C0            1 RES     
    9885 C0         485.5558  -516.7364   171.5484 C0            1 RES     
    9886 C0         486.8241  -516.7425   172.4102 C0            1 RES     
    9887 C0         488.0161  -516.0569   171.7208 C0            1 RES     
    9888 C0         487.7799  -514.5629   171.4480 C0            1 RES     
    9889 C0         489.0144  -513.9168   170.8283 C0            1 RES     
    9890 H6         479.7877  -516.5721   171.5886 H6            1 RES     
    9891 H6         478.9431  -517.4307   170.3380 H6            1 RES     
    9892 H6         481.1364  -518.8286   170.0372 H6            1 RES     
    9893 H6         480.4266  -520.4187   171.6092 H6            1 RES     
    9894 H6         478.9584  -519.6444   170.9678 H6            1 RES     
    9895 H6         480.1666  -519.2384   173.7664 H6            1 RES     
    9896 H6         478.8369  -520.3193   173.3188 H6            1 RES     
    9897 H6         478.7345  -517.2539   173.2815 H6            1 RES     
    9898 H6         477.9706  -518.3575   174.4311 H6            1 RES     
    9899 H6         477.2331  -518.1072   171.4391 H6            1 RES     
    9900 H6         476.3391  -517.4515   172.8380 H6            1 RES     
    9901 H6         476.8191  -520.4463   172.2353 H6            1 RES     
    9902 H6         475.9293  -519.7876   173.6666 H6            1 RES     
    9903 H6         474.2778  -518.7062   172.1191 H6            1 RES     
    9904 H6         474.3751  -520.4880   171.8482 H6            1 RES     
    9905 H6         475.1841  -519.3598   170.6959 H6            1 RES     
    9906 H6         482.3858  -519.2406   172.1527 H6            1 RES     
    9907 H6         481.6933  -517.7472   172.8869 H6            1 RES     
    9908 H6         483.4491  -517.9391   170.3788 H6            1 RES     
    9909 H6         482.8716  -516.4028   171.1959 H6            1 RES     
    9910 H6         484.1715  -517.0065   173.2108 H6            1 RES     
    9911 H6         484.7131  -518.5390   172.4129 H6            1 RES     
    9912 H6         485.7789  -517.2231   170.5725 H6            1 RES     
    9913 H6         485.2275  -515.6927   171.3633 H6            1 RES     
    9914 H6         486.6200  -516.2454   173.3835 H6            1 RES     
    9915 H6         487.1108  -517.7983   172.6117 H6            1 RES     
    9916 H6         488.2431  -516.5814   170.7663 H6            1 RES     
    9917 H6         488.8972  -516.1602   172.3914 H6            1 RES     
    9918 H6         487.5425  -514.0434   172.4016 H6            1 RES     
    9919 H6         486.9348  -514.4252   170.7420 H6            1 RES     
    9920 H6         488.8157  -512.8402   170.6426 H6            1 RES     
    9921 H6         489.8825  -514.0054   171.5156 H6            1 RES     
    9922 H6         489.2606  -514.4055   169.8614 H6            1 RES     
    9923 C0         490.6080  -520.9058   162.8488 C0            1 RES     
    9924 C1         490.0183  -519.9660   163.9081 C1            1 RES     
    9925 C1         490.9608  -519.2597   164.5710 C1            1 RES     
    9926 S2         490.3002  -518.2219   165.7032 S2            1 RES     
    9927 C1         488.7059  -518.6929   165.3202 C1            1 RES     
    9928 C1         488.7160  -519.6579   164.3064 C1            1 RES     
    9929 C1         492.2318  -519.6376   164.0684 C1            1 RES     
    9930 C1         492.0878  -520.5976   163.1084 C1            1 RES     
    9931 C1         493.3141  -521.0392   162.6011 C1            1 RES     
    9932 C1         494.4011  -520.3772   163.2276 C1            1 RES     
    9933 S2         493.8159  -519.2397   164.3582 S2            1 RES     
    9934 H3         487.8284  -520.1087   163.8850 H3            1 RES     
    9935 H3         493.3960  -521.7992   161.8386 H3            1 RES     
    9936 N4         498.1303  -519.8229   163.2776 N4            1 RES     
    9937 C1         496.7886  -519.6252   163.4196 C1            1 RES     
    9938 C1         495.8563  -520.6151   163.0308 C1            1 RES     
    9939 C1         496.3750  -521.8151   162.5118 C1            1 RES     
    9940 N4         495.6246  -522.8819   162.1371 N4            1 RES     
    9941 S2         496.7672  -523.9813   161.6708 S2            1 RES     
    9942 N4         498.1966  -523.1909   161.9151 N4            1 RES     
    9943 C1         497.7827  -521.9933   162.3946 C1            1 RES     
    9944 C1         498.6473  -520.9769   162.7780 C1            1 RES     
    9945 H5         496.4547  -518.6810   163.8276 H5            1 RES     
    9946 C0         490.1194  -520.2725   161.4901 C0            1 RES     
    9947 C0         490.5852  -520.6018   160.0281 C0            1 RES     
    9948 C0         490.2371  -519.3902   159.0878 C0            1 RES     
    9949 C0         488.7708  -519.1559   158.6176 C0            1 RES     
    9950 C0         487.6998  -518.7627   159.6563 C0            1 RES     
    9951 C0         488.0159  -517.5115   160.4981 C0            1 RES     
    9952 C0         488.1461  -516.2338   159.6584 C0            1 RES     
    9953 C0         488.4018  -515.0213   160.5509 C0            1 RES     
    9954 C0         490.0104  -521.8891   159.3709 C0            1 RES     
    9955 C0         490.7639  -523.1795   159.6801 C0            1 RES     
    9956 C0         490.0310  -524.3919   159.0767 C0            1 RES     
    9957 C0         490.7301  -525.7172   159.4178 C0            1 RES     
    9958 C0         489.8542  -526.9143   159.0091 C0            1 RES     
    9959 C0         490.3936  -528.2725   159.4946 C0            1 RES     
    9960 C0         490.3590  -528.4079   161.0301 C0            1 RES     
    9961 C0         490.7858  -529.8007   161.4827 C0            1 RES     
    9962 H6         489.0211  -520.3064   161.5164 H6            1 RES     
    9963 H6         490.4292  -519.2104   161.6052 H6            1 RES     
    9964 H6         491.6975  -520.6352   160.0204 H6            1 RES     
    9965 H6         490.8093  -519.5590   158.1478 H6            1 RES     
    9966 H6         490.6455  -518.4474   159.5109 H6            1 RES     
    9967 H6         488.4084  -520.0575   158.0805 H6            1 RES     
    9968 H6         488.8069  -518.3436   157.8609 H6            1 RES     
    9969 H6         487.4913  -519.6152   160.3236 H6            1 RES     
    9970 H6         486.7456  -518.5850   159.1139 H6            1 RES     
    9971 H6         488.9411  -517.6624   161.0841 H6            1 RES     
    9972 H6         487.1811  -517.3734   161.2200 H6            1 RES     
    9973 H6         488.9913  -516.3258   158.9453 H6            1 RES     
    9974 H6         487.2069  -516.0676   159.0876 H6            1 RES     
    9975 H6         487.5647  -514.8848   161.2685 H6            1 RES     
    9976 H6         488.4851  -514.1081   159.9248 H6            1 RES     
    9977 H6         489.3488  -515.1523   161.1171 H6            1 RES     
    9978 H6         490.0905  -521.8034   158.2637 H6            1 RES     
    9979 H6         488.9300  -521.9662   159.6243 H6            1 RES     
    9980 H6         491.8021  -523.1159   159.2873 H6            1 RES     
    9981 H6         490.8130  -523.2996   160.7537 H6            1 RES     
    9982 H6         489.0070  -524.4097   159.5129 H6            1 RES     
    9983 H6         489.9423  -524.2916   157.9730 H6            1 RES     
    9984 H6         491.7255  -525.7744   158.9271 H6            1 RES     
    9985 H6         490.8985  -525.7478   160.5013 H6            1 RES     
    9986 H6         488.8283  -526.7931   159.4228 H6            1 RES     
    9987 H6         489.7750  -526.9274   157.8996 H6            1 RES     
    9988 H6         491.4246  -528.4334   159.1133 H6            1 RES     
    9989 H6         489.7358  -529.0612   159.0683 H6            1 RES     
    9990 H6         489.3245  -528.2235   161.3960 H6            1 RES     
    9991 H6         491.0425  -527.6786   161.5034 H6            1 RES     
    9992 H6         490.7404  -529.8588   162.5894 H6            1 RES     
    9993 H6         490.1063  -530.5708   161.0586 H6            1 RES     
    9994 H6         491.8280  -530.0091   161.1564 H6            1 RES     
    9995 C0         490.0494  -522.3503   163.1727 C0            1 RES     
    9996 C0         490.9228  -523.6364   163.3519 C0            1 RES     
    9997 C0         490.0962  -524.9135   162.9705 C0            1 RES     
    9998 C0         488.9920  -525.4662   163.9053 C0            1 RES     
    9999 C0         487.6935  -524.6477   164.0553 C0            1 RES     
   10000 C0         486.9525  -524.3179   162.7423 C0            1 RES     
   10001 C0         486.5321  -525.5538   161.9363 C0            1 RES     
   10002 C0         485.7614  -525.1418   160.6835 C0            1 RES     
   10003 C0         491.5549  -523.8860   164.7527 C0            1 RES     
   10004 C0         492.6472  -522.9079   165.1513 C0            1 RES     
   10005 C0         493.3527  -523.3120   166.4465 C0            1 RES     
   10006 C0         494.4704  -522.3092   166.7544 C0            1 RES     
   10007 C0         495.2140  -522.6754   168.0445 C0            1 RES     
   10008 C0         496.3851  -521.7252   168.3473 C0            1 RES     
   10009 C0         495.9395  -520.2750   168.5942 C0            1 RES     
   10010 C0         497.1276  -519.3906   168.9571 C0            1 RES     
   10011 H6         489.3750  -522.3126   164.0458 H6            1 RES     
   10012 H6         489.3722  -522.5319   162.3235 H6            1 RES     
   10013 H6         491.7483  -523.5922   162.6148 H6            1 RES     
   10014 H6         490.8387  -525.7370   162.8901 H6            1 RES     
   10015 H6         489.6442  -524.7901   161.9719 H6            1 RES     
   10016 H6         489.4151  -525.6660   164.9107 H6            1 RES     
   10017 H6         488.7004  -526.4577   163.4968 H6            1 RES     
   10018 H6         487.8982  -523.7100   164.5991 H6            1 RES     
   10019 H6         487.0050  -525.2313   164.7043 H6            1 RES     
   10020 H6         487.5715  -523.6720   162.0954 H6            1 RES     
   10021 H6         486.0406  -523.7403   163.0108 H6            1 RES     
   10022 H6         487.4277  -526.1271   161.6173 H6            1 RES     
   10023 H6         485.8862  -526.2073   162.5614 H6            1 RES     
   10024 H6         484.8433  -524.5811   160.9615 H6            1 RES     
   10025 H6         485.4668  -526.0450   160.1098 H6            1 RES     
   10026 H6         486.3947  -524.4995   160.0338 H6            1 RES     
   10027 H6         492.0395  -524.8876   164.7227 H6            1 RES     
   10028 H6         490.7680  -523.9039   165.5375 H6            1 RES     
   10029 H6         493.4123  -522.9008   164.3496 H6            1 RES     
   10030 H6         492.1957  -521.9136   165.3018 H6            1 RES     
   10031 H6         492.6194  -523.3334   167.2816 H6            1 RES     
   10032 H6         493.7956  -524.3267   166.3283 H6            1 RES     
   10033 H6         495.1953  -522.2967   165.9098 H6            1 RES     
   10034 H6         494.0141  -521.3024   166.8519 H6            1 RES     
   10035 H6         494.5043  -522.6770   168.9003 H6            1 RES     
   10036 H6         495.6298  -523.7013   167.9350 H6            1 RES     
   10037 H6         497.1133  -521.7560   167.5068 H6            1 RES     
   10038 H6         496.8947  -522.1004   169.2617 H6            1 RES     
   10039 H6         495.2038  -520.2485   169.4270 H6            1 RES     
   10040 H6         495.4682  -519.8523   167.6828 H6            1 RES     
   10041 H6         496.7768  -518.3512   169.1298 H6            1 RES     
   10042 H6         497.6152  -519.7605   169.8840 H6            1 RES     
   10043 H6         497.8693  -519.3835   168.1301 H6            1 RES     
   10044 C0         503.5687  -521.9775   160.7792 C0            1 RES     
   10045 C1         502.3803  -521.6320   161.6857 C1            1 RES     
   10046 C1         502.7545  -521.2805   162.9359 C1            1 RES     
   10047 S2         501.4500  -520.8822   163.9029 S2            1 RES     
   10048 C1         500.3317  -521.1653   162.6461 C1            1 RES     
   10049 C1         501.0003  -521.5671   161.4840 C1            1 RES     
   10050 C1         504.1681  -521.3611   163.0138 C1            1 RES     
   10051 C1         504.6780  -521.7863   161.8208 C1            1 RES     
   10052 C1         506.0697  -521.9226   161.8487 C1            1 RES     
   10053 C1         506.5960  -521.5909   163.1236 C1            1 RES     
   10054 S2         505.3344  -521.1012   164.1643 S2            1 RES     
   10055 H3         500.5109  -521.7988   160.5483 H3            1 RES     
   10056 H3         506.6456  -522.2536   160.9976 H3            1 RES     
   10057 N4         509.7011  -521.0341   165.1890 N4            1 RES     
   10058 C1         508.4217  -520.9527   164.7244 C1            1 RES     
   10059 C1         508.0075  -521.6808   163.5849 C1            1 RES     
   10060 C1         508.9662  -522.5042   162.9674 C1            1 RES     
   10061 N4         508.7233  -523.3030   161.8976 N4            1 RES     
   10062 S2         510.1808  -524.0464   161.6635 S2            1 RES     
   10063 N4         511.1379  -523.4195   162.8545 N4            1 RES     
   10064 C1         510.2882  -522.5779   163.4910 C1            1 RES     
   10065 C1         510.6392  -521.8253   164.6036 C1            1 RES     
   10066 H5         507.7323  -520.3030   165.2460 H5            1 RES     
   10067 C0         503.5681  -520.8096   159.7201 C0            1 RES     
   10068 C0         504.6741  -520.4314   158.6728 C0            1 RES     
   10069 C0         504.4811  -518.9339   158.2329 C0            1 RES     
   10070 C0         503.3441  -518.5458   157.2418 C0            1 RES     
   10071 C0         501.8740  -518.6894   157.6875 C0            1 RES     
   10072 C0         501.4953  -517.9472   158.9836 C0            1 RES     
   10073 C0         501.6619  -516.4254   158.8806 C0            1 RES     
   10074 C0         501.2182  -515.7419   160.1722 C0            1 RES     
   10075 C0         504.7569  -521.2952   157.3818 C0            1 RES     
   10076 C0         505.5906  -522.5683   157.4932 C0            1 RES     
   10077 C0         505.4946  -523.3932   156.1966 C0            1 RES     
   10078 C0         506.2756  -524.7132   156.2932 C0            1 RES     
   10079 C0         505.9684  -525.6157   155.0855 C0            1 RES     
   10080 C0         506.5563  -527.0340   155.2051 C0            1 RES     
   10081 C0         505.9064  -527.8498   156.3406 C0            1 RES     
   10082 C0         506.4181  -529.2866   156.3663 C0            1 RES     
   10083 H6         502.6055  -520.8767   159.1939 H6            1 RES     
   10084 H6         503.5374  -519.9075   160.3702 H6            1 RES     
   10085 H6         505.6570  -520.4324   159.1945 H6            1 RES     
   10086 H6         505.4203  -518.6463   157.7086 H6            1 RES     
   10087 H6         504.4343  -518.2752   159.1266 H6            1 RES     
   10088 H6         503.4698  -519.1151   156.2969 H6            1 RES     
   10089 H6         503.5038  -517.4785   156.9788 H6            1 RES     
   10090 H6         501.6111  -519.7560   157.7811 H6            1 RES     
   10091 H6         501.2284  -518.3074   156.8667 H6            1 RES     
   10092 H6         502.0907  -518.3256   159.8348 H6            1 RES     
   10093 H6         500.4267  -518.1696   159.1973 H6            1 RES     
   10094 H6         502.7249  -516.1655   158.6966 H6            1 RES     
   10095 H6         501.0442  -516.0404   158.0404 H6            1 RES     
   10096 H6         500.1498  -515.9639   160.3809 H6            1 RES     
   10097 H6         501.3397  -514.6427   160.0735 H6            1 RES     
   10098 H6         501.8363  -516.0932   161.0261 H6            1 RES     
   10099 H6         505.2766  -520.7162   156.5853 H6            1 RES     
   10100 H6         503.7237  -521.5031   157.0257 H6            1 RES     
   10101 H6         506.6493  -522.3103   157.7142 H6            1 RES     
   10102 H6         505.2062  -523.1598   158.3130 H6            1 RES     
   10103 H6         504.4191  -523.6297   156.0342 H6            1 RES     
   10104 H6         505.8619  -522.8067   155.3264 H6            1 RES     
   10105 H6         507.3672  -524.5196   156.3700 H6            1 RES     
   10106 H6         505.9699  -525.2266   157.2131 H6            1 RES     
   10107 H6         504.8677  -525.7182   154.9581 H6            1 RES     
   10108 H6         506.3734  -525.1275   154.1718 H6            1 RES     
   10109 H6         507.6572  -526.9814   155.3451 H6            1 RES     
   10110 H6         506.3501  -527.5594   154.2471 H6            1 RES     
   10111 H6         504.8035  -527.8745   156.1959 H6            1 RES     
   10112 H6         506.1292  -527.3980   157.3251 H6            1 RES     
   10113 H6         505.9225  -529.8399   157.1899 H6            1 RES     
   10114 H6         506.1876  -529.7970   155.4067 H6            1 RES     
   10115 H6         507.5168  -529.3010   156.5365 H6            1 RES     
   10116 C0         503.2864  -523.4247   160.2052 C0            1 RES     
   10117 C0         504.2791  -524.6324   160.2746 C0            1 RES     
   10118 C0         504.0224  -525.6176   159.0815 C0            1 RES     
   10119 C0         502.7923  -526.5583   159.0651 C0            1 RES     
   10120 C0         501.3996  -525.9259   158.8671 C0            1 RES     
   10121 C0         501.2313  -525.0551   157.6041 C0            1 RES     
   10122 C0         501.4999  -525.8022   156.2913 C0            1 RES     
   10123 C0         501.2606  -524.8859   155.0928 C0            1 RES     
   10124 C0         504.2960  -525.4740   161.5844 C0            1 RES     
   10125 C0         504.8486  -524.7572   162.8048 C0            1 RES     
   10126 C0         505.0111  -525.6871   164.0079 C0            1 RES     
   10127 C0         505.6185  -524.9067   165.1792 C0            1 RES     
   10128 C0         505.8075  -525.7997   166.4114 C0            1 RES     
   10129 C0         506.4762  -525.0626   167.5843 C0            1 RES     
   10130 C0         505.6373  -523.8914   168.1202 C0            1 RES     
   10131 C0         506.3110  -523.2398   169.3231 C0            1 RES     
   10132 H6         502.3176  -523.8012   160.5767 H6            1 RES     
   10133 H6         503.0985  -523.2180   159.1399 H6            1 RES     
   10134 H6         505.3028  -524.2409   160.1147 H6            1 RES     
   10135 H6         504.9010  -526.2985   159.0620 H6            1 RES     
   10136 H6         504.0222  -525.0663   158.1261 H6            1 RES     
   10137 H6         502.7826  -527.1814   159.9823 H6            1 RES     
   10138 H6         502.9466  -527.2643   158.2208 H6            1 RES     
   10139 H6         501.1247  -525.3311   159.7545 H6            1 RES     
   10140 H6         500.6613  -526.7555   158.8166 H6            1 RES     
   10141 H6         501.8932  -524.1725   157.6464 H6            1 RES     
   10142 H6         500.1834  -524.6824   157.5942 H6            1 RES     
   10143 H6         502.5541  -526.1487   156.2554 H6            1 RES     
   10144 H6         500.8256  -526.6823   156.2158 H6            1 RES     
   10145 H6         500.2071  -524.5326   155.0808 H6            1 RES     
   10146 H6         501.4614  -525.4385   154.1515 H6            1 RES     
   10147 H6         501.9370  -524.0050   155.1385 H6            1 RES     
   10148 H6         504.9702  -526.3424   161.4104 H6            1 RES     
   10149 H6         503.2795  -525.8628   161.8106 H6            1 RES     
   10150 H6         505.8556  -524.3709   162.5506 H6            1 RES     
   10151 H6         504.1539  -523.9491   163.0867 H6            1 RES     
   10152 H6         504.0210  -526.1005   164.2984 H6            1 RES     
   10153 H6         505.6894  -526.5283   163.7395 H6            1 RES     
   10154 H6         506.6074  -524.4971   164.8738 H6            1 RES     
   10155 H6         504.9391  -524.0635   165.4218 H6            1 RES     
   10156 H6         504.8244  -526.2042   166.7371 H6            1 RES     
   10157 H6         506.4611  -526.6553   166.1322 H6            1 RES     
   10158 H6         507.4765  -524.6934   167.2670 H6            1 RES     
   10159 H6         506.6224  -525.7990   168.4046 H6            1 RES     
   10160 H6         504.6347  -524.2611   168.4261 H6            1 RES     
   10161 H6         505.5121  -523.1131   167.3391 H6            1 RES     
   10162 H6         505.6843  -522.3991   169.6887 H6            1 RES     
   10163 H6         506.4315  -523.9776   170.1446 H6            1 RES     
   10164 H6         507.3085  -522.8426   169.0376 H6            1 RES     
   10165 C0         516.0252  -521.7013   165.0421 C0            1 RES     
   10166 C1         514.5199  -521.8303   165.3087 C1            1 RES     
   10167 C1         514.2325  -522.0737   166.6067 C1            1 RES     
   10168 S2         512.5876  -522.1856   166.8846 S2            1 RES     
   10169 C1         512.2115  -521.8952   165.2462 C1            1 RES     
   10170 C1         513.3845  -521.7127   164.5048 C1            1 RES     
   10171 C1         515.4536  -522.1485   167.3237 C1            1 RES     
   10172 C1         516.5066  -521.9765   166.4719 C1            1 RES     
   10173 C1         517.7430  -522.0789   167.1177 C1            1 RES     
   10174 C1         517.5828  -522.3476   168.5013 C1            1 RES     
   10175 S2         515.9223  -522.4104   168.8932 S2            1 RES     
   10176 H3         513.4093  -521.5073   163.4436 H3            1 RES     
   10177 H3         518.6862  -521.9760   166.6025 H3            1 RES     
   10178 N4         519.2862  -522.7142   171.8451 N4            1 RES     
   10179 C1         518.3464  -522.4608   170.8902 C1            1 RES     
   10180 C1         518.6414  -522.6041   169.5145 C1            1 RES     
   10181 C1         519.9369  -523.0372   169.1788 C1            1 RES     
   10182 N4         520.3686  -523.2712   167.9138 N4            1 RES     
   10183 S2         521.9181  -523.7949   168.1521 S2            1 RES     
   10184 N4         522.0996  -523.7527   169.7930 N4            1 RES     
   10185 C1         520.8870  -523.3095   170.2036 C1            1 RES     
   10186 C1         520.5424  -523.1336   171.5369 C1            1 RES     
   10187 H5         517.3683  -522.1331   171.2148 H5            1 RES     
   10188 C0         516.1967  -520.1810   164.6611 C0            1 RES     
   10189 C0         517.5177  -519.3450   164.5228 C0            1 RES     
   10190 C0         517.1799  -517.8153   164.6612 C0            1 RES     
   10191 C0         516.5150  -517.0470   163.4807 C0            1 RES     
   10192 C0         515.0756  -517.4102   163.0604 C0            1 RES     
   10193 C0         514.0181  -517.3431   164.1790 C0            1 RES     
   10194 C0         513.8456  -515.9358   164.7657 C0            1 RES     
   10195 C0         512.7472  -515.9207   165.8265 C0            1 RES     
   10196 C0         518.3434  -519.5295   163.2176 C0            1 RES     
   10197 C0         519.3271  -520.6960   163.2196 C0            1 RES     
   10198 C0         519.9898  -520.8474   161.8379 C0            1 RES     
   10199 C0         520.9448  -522.0501   161.7846 C0            1 RES     
   10200 C0         521.4037  -522.3157   160.3402 C0            1 RES     
   10201 C0         522.2036  -523.6210   160.1732 C0            1 RES     
   10202 C0         521.3477  -524.8767   160.4336 C0            1 RES     
   10203 C0         522.1253  -526.1577   160.1488 C0            1 RES     
   10204 H6         515.5951  -520.0249   163.7546 H6            1 RES     
   10205 H6         515.6795  -519.6714   165.5038 H6            1 RES     
   10206 H6         518.1551  -519.5593   165.4094 H6            1 RES     
   10207 H6         518.1546  -517.3003   164.8172 H6            1 RES     
   10208 H6         516.6030  -517.6332   165.5932 H6            1 RES     
   10209 H6         517.1614  -517.1245   162.5812 H6            1 RES     
   10210 H6         516.5126  -515.9729   163.7633 H6            1 RES     
   10211 H6         515.0597  -518.4095   162.5950 H6            1 RES     
   10212 H6         514.7693  -516.7132   162.2500 H6            1 RES     
   10213 H6         514.2669  -518.0518   164.9903 H6            1 RES     
   10214 H6         513.0466  -517.6624   163.7416 H6            1 RES     
   10215 H6         514.7907  -515.5967   165.2382 H6            1 RES     
   10216 H6         513.5712  -515.2268   163.9548 H6            1 RES     
   10217 H6         511.7780  -516.2373   165.3854 H6            1 RES     
   10218 H6         512.6340  -514.8931   166.2317 H6            1 RES     
   10219 H6         513.0082  -516.6059   166.6614 H6            1 RES     
   10220 H6         518.9980  -518.6412   163.0685 H6            1 RES     
   10221 H6         517.6414  -519.5775   162.3560 H6            1 RES     
   10222 H6         520.0968  -520.5417   164.0069 H6            1 RES     
   10223 H6         518.7838  -521.6029   163.4478 H6            1 RES     
   10224 H6         519.1753  -521.0094   161.0967 H6            1 RES     
   10225 H6         520.5407  -519.9226   161.5599 H6            1 RES     
   10226 H6         521.8198  -521.8873   162.4501 H6            1 RES     
   10227 H6         520.4092  -522.9308   162.1598 H6            1 RES     
   10228 H6         520.5205  -522.3746   159.6659 H6            1 RES     
   10229 H6         522.0294  -521.4580   160.0085 H6            1 RES     
   10230 H6         523.0934  -523.6123   160.8384 H6            1 RES     
   10231 H6         522.5551  -523.6610   159.1190 H6            1 RES     
   10232 H6         520.4514  -524.8584   159.7746 H6            1 RES     
   10233 H6         521.0170  -524.9139   161.4883 H6            1 RES     
   10234 H6         521.4741  -527.0348   160.3407 H6            1 RES     
   10235 H6         522.4527  -526.1841   159.0874 H6            1 RES     
   10236 H6         523.0163  -526.2225   160.8108 H6            1 RES     
   10237 C0         516.3662  -522.7385   163.8969 C0            1 RES     
   10238 C0         517.4911  -523.8241   163.9684 C0            1 RES     
   10239 C0         518.0075  -524.1688   162.5281 C0            1 RES     
   10240 C0         517.1634  -525.0282   161.5549 C0            1 RES     
   10241 C0         515.8804  -524.4067   160.9664 C0            1 RES     
   10242 C0         516.0626  -523.0629   160.2295 C0            1 RES     
   10243 C0         517.0322  -523.1293   159.0424 C0            1 RES     
   10244 C0         517.1141  -521.7758   158.3391 C0            1 RES     
   10245 C0         517.1498  -525.1664   164.6797 C0            1 RES     
   10246 C0         516.9440  -525.0665   166.1818 C0            1 RES     
   10247 C0         516.7962  -526.4360   166.8461 C0            1 RES     
   10248 C0         516.6441  -526.2559   168.3608 C0            1 RES     
   10249 C0         516.4983  -527.6050   169.0751 C0            1 RES     
   10250 C0         516.4094  -527.4629   170.6041 C0            1 RES     
   10251 C0         515.1707  -526.6801   171.0681 C0            1 RES     
   10252 C0         515.0936  -526.6277   172.5903 C0            1 RES     
   10253 H6         515.4516  -523.2644   163.5724 H6            1 RES     
   10254 H6         516.6052  -522.0768   163.0497 H6            1 RES     
   10255 H6         518.3602  -523.3793   164.4914 H6            1 RES     
   10256 H6         518.9452  -524.7471   162.6775 H6            1 RES     
   10257 H6         518.2819  -523.2452   161.9911 H6            1 RES     
   10258 H6         516.9136  -525.9989   162.0295 H6            1 RES     
   10259 H6         517.8244  -525.2724   160.6956 H6            1 RES     
   10260 H6         515.1221  -524.2839   161.7581 H6            1 RES     
   10261 H6         515.4540  -525.1404   160.2483 H6            1 RES     
   10262 H6         516.4131  -522.2800   160.9246 H6            1 RES     
   10263 H6         515.0627  -522.7500   159.8560 H6            1 RES     
   10264 H6         518.0507  -523.3979   159.3931 H6            1 RES     
   10265 H6         516.6843  -523.8952   158.3163 H6            1 RES     
   10266 H6         516.1149  -521.4794   157.9538 H6            1 RES     
   10267 H6         517.8206  -521.8383   157.4854 H6            1 RES     
   10268 H6         517.4763  -520.9956   159.0432 H6            1 RES     
   10269 H6         518.0191  -525.8466   164.5362 H6            1 RES     
   10270 H6         516.2581  -525.6385   164.2133 H6            1 RES     
   10271 H6         517.8400  -524.5841   166.6207 H6            1 RES     
   10272 H6         516.0254  -524.4893   166.3766 H6            1 RES     
   10273 H6         515.9062  -526.9585   166.4334 H6            1 RES     
   10274 H6         517.7027  -527.0491   166.6411 H6            1 RES     
   10275 H6         517.5404  -525.7300   168.7597 H6            1 RES     
   10276 H6         515.7472  -525.6293   168.5458 H6            1 RES     
   10277 H6         515.5974  -528.1354   168.6969 H6            1 RES     
   10278 H6         517.3912  -528.2268   168.8440 H6            1 RES     
   10279 H6         517.3303  -526.9674   170.9838 H6            1 RES     
   10280 H6         516.3639  -528.4871   171.0348 H6            1 RES     
   10281 H6         514.2527  -527.1710   170.6783 H6            1 RES     
   10282 H6         515.2079  -525.6359   170.6945 H6            1 RES     
   10283 H6         514.1911  -526.0578   172.8963 H6            1 RES     
   10284 H6         515.0255  -527.6543   173.0088 H6            1 RES     
   10285 H6         515.9919  -526.1216   173.0042 H6            1 RES     
   10286 C0         525.0322  -523.0983   174.5465 C0            1 RES     
   10287 C1         523.6346  -523.3683   173.9743 C1            1 RES     
   10288 C1         522.8903  -524.1788   174.7589 C1            1 RES     
   10289 S2         521.3619  -524.4418   174.1343 S2            1 RES     
   10290 C1         521.6599  -523.4506   172.7782 C1            1 RES     
   10291 C1         522.9561  -522.9258   172.8371 C1            1 RES     
   10292 C1         523.6705  -524.5418   175.8860 C1            1 RES     
   10293 C1         524.9112  -523.9793   175.7959 C1            1 RES     
   10294 C1         525.7415  -524.3344   176.8639 C1            1 RES     
   10295 C1         525.0780  -525.2033   177.7678 C1            1 RES     
   10296 S2         523.4759  -525.4744   177.2440 S2            1 RES     
   10297 H3         523.3794  -522.2622   172.0960 H3            1 RES     
   10298 H3         526.7598  -523.9881   176.9579 H3            1 RES     
   10299 N4         525.2338  -527.0033   181.0773 N4            1 RES     
   10300 C1         524.7578  -526.3670   179.9692 C1            1 RES     
   10301 C1         525.6337  -525.8660   178.9782 C1            1 RES     
   10302 C1         527.0110  -526.0707   179.1776 C1            1 RES     
   10303 N4         527.9808  -525.6975   178.3050 N4            1 RES     
   10304 S2         529.3578  -526.2369   179.0432 S2            1 RES     
   10305 N4         528.8097  -526.9371   180.4348 N4            1 RES     
   10306 C1         527.4707  -526.7553   180.3383 C1            1 RES     
   10307 C1         526.5617  -527.2092   181.2845 C1            1 RES     
   10308 H5         523.6876  -526.2439   179.8746 H5            1 RES     
   10309 C0         524.9825  -521.5666   174.9168 C0            1 RES     
   10310 C0         525.9965  -520.7285   175.7725 C0            1 RES     
   10311 C0         525.2791  -519.4349   176.3064 C0            1 RES     
   10312 C0         525.0169  -518.2312   175.3534 C0            1 RES     
   10313 C0         524.0240  -518.3978   174.1842 C0            1 RES     
   10314 C0         522.6093  -518.8680   174.5735 C0            1 RES     
   10315 C0         521.8751  -517.8825   175.4922 C0            1 RES     
   10316 C0         520.4615  -518.3737   175.7963 C0            1 RES     
   10317 C0         527.3159  -520.2840   175.0790 C0            1 RES     
   10318 C0         528.4517  -521.3025   175.1091 C0            1 RES     
   10319 C0         529.6533  -520.7975   174.2891 C0            1 RES     
   10320 C0         530.7962  -521.8240   174.2479 C0            1 RES     
   10321 C0         531.8734  -521.3972   173.2356 C0            1 RES     
   10322 C0         532.9534  -522.4673   172.9904 C0            1 RES     
   10323 C0         532.3935  -523.7242   172.2947 C0            1 RES     
   10324 C0         533.4983  -524.7198   171.9556 C0            1 RES     
   10325 H6         524.8046  -521.0312   173.9736 H6            1 RES     
   10326 H6         524.0517  -521.5051   175.5228 H6            1 RES     
   10327 H6         526.2280  -521.3060   176.6952 H6            1 RES     
   10328 H6         525.9420  -519.0240   177.1010 H6            1 RES     
   10329 H6         524.3361  -519.7071   176.8273 H6            1 RES     
   10330 H6         525.9819  -517.8787   174.9321 H6            1 RES     
   10331 H6         524.6394  -517.4013   175.9878 H6            1 RES     
   10332 H6         524.4453  -519.0788   173.4263 H6            1 RES     
   10333 H6         523.9348  -517.4169   173.6682 H6            1 RES     
   10334 H6         522.6507  -519.8610   175.0576 H6            1 RES     
   10335 H6         522.0222  -518.9771   173.6352 H6            1 RES     
   10336 H6         522.4196  -517.7722   176.4528 H6            1 RES     
   10337 H6         521.8110  -516.8898   174.9959 H6            1 RES     
   10338 H6         519.8772  -518.4787   174.8571 H6            1 RES     
   10339 H6         519.9463  -517.6434   176.4551 H6            1 RES     
   10340 H6         520.4978  -519.3562   176.3139 H6            1 RES     
   10341 H6         527.7400  -519.4095   175.6225 H6            1 RES     
   10342 H6         527.0798  -519.9532   174.0434 H6            1 RES     
   10343 H6         528.7533  -521.5034   176.1602 H6            1 RES     
   10344 H6         528.0958  -522.2267   174.6746 H6            1 RES     
   10345 H6         529.2949  -520.6254   173.2494 H6            1 RES     
   10346 H6         530.0328  -519.8346   174.6952 H6            1 RES     
   10347 H6         531.2394  -521.9598   175.2579 H6            1 RES     
   10348 H6         530.3783  -522.7912   173.9425 H6            1 RES     
   10349 H6         531.4021  -521.1650   172.2547 H6            1 RES     
   10350 H6         532.3570  -520.4682   173.6100 H6            1 RES     
   10351 H6         533.4463  -522.7400   173.9480 H6            1 RES     
   10352 H6         533.7175  -522.0182   172.3189 H6            1 RES     
   10353 H6         531.8859  -523.4303   171.3492 H6            1 RES     
   10354 H6         531.6657  -524.2418   172.9469 H6            1 RES     
   10355 H6         533.0564  -525.6035   171.4516 H6            1 RES     
   10356 H6         534.2412  -524.2559   171.2720 H6            1 RES     
   10357 H6         534.0111  -525.0566   172.8830 H6            1 RES     
   10358 C0         526.0629  -523.4975   173.4142 C0            1 RES     
   10359 C0         527.2733  -524.4721   173.5986 C0            1 RES     
   10360 C0         528.4179  -524.1164   172.5871 C0            1 RES     
   10361 C0         528.2979  -524.4618   171.0822 C0            1 RES     
   10362 C0         527.2791  -523.6708   170.2365 C0            1 RES     
   10363 C0         527.4317  -522.1353   170.2650 C0            1 RES     
   10364 C0         528.7986  -521.6355   169.7795 C0            1 RES     
   10365 C0         528.8471  -520.1089   169.7892 C0            1 RES     
   10366 C0         526.9922  -525.9983   173.4734 C0            1 RES     
   10367 C0         526.1509  -526.5932   174.5901 C0            1 RES     
   10368 C0         526.0653  -528.1180   174.5116 C0            1 RES     
   10369 C0         525.2466  -528.6459   175.6953 C0            1 RES     
   10370 C0         525.1366  -530.1751   175.6648 C0            1 RES     
   10371 C0         524.3760  -530.7419   176.8757 C0            1 RES     
   10372 C0         522.9107  -530.2820   176.9392 C0            1 RES     
   10373 C0         522.1847  -530.9254   178.1159 C0            1 RES     
   10374 H6         525.5266  -523.8405   172.5125 H6            1 RES     
   10375 H6         526.4741  -522.5189   173.1208 H6            1 RES     
   10376 H6         527.7049  -524.2921   174.6027 H6            1 RES     
   10377 H6         529.3112  -524.6781   172.9371 H6            1 RES     
   10378 H6         528.6661  -523.0438   172.6551 H6            1 RES     
   10379 H6         528.1088  -525.5476   170.9590 H6            1 RES     
   10380 H6         529.2983  -524.2759   170.6354 H6            1 RES     
   10381 H6         526.2513  -523.9366   170.5363 H6            1 RES     
   10382 H6         527.3859  -524.0100   169.1833 H6            1 RES     
   10383 H6         527.2568  -521.7435   171.2822 H6            1 RES     
   10384 H6         526.6424  -521.7102   169.6066 H6            1 RES     
   10385 H6         529.6034  -522.0104   170.4460 H6            1 RES     
   10386 H6         528.9850  -521.9981   168.7457 H6            1 RES     
   10387 H6         528.0673  -519.6931   169.1156 H6            1 RES     
   10388 H6         529.8416  -519.7624   169.4389 H6            1 RES     
   10389 H6         528.6791  -519.7233   170.8182 H6            1 RES     
   10390 H6         527.9742  -526.5201   173.5212 H6            1 RES     
   10391 H6         526.5234  -526.2288   172.4922 H6            1 RES     
   10392 H6         526.6327  -526.3411   175.5557 H6            1 RES     
   10393 H6         525.1285  -526.1876   174.5189 H6            1 RES     
   10394 H6         525.5872  -528.4176   173.5540 H6            1 RES     
   10395 H6         527.0900  -528.5513   174.5551 H6            1 RES     
   10396 H6         525.7353  -528.3369   176.6464 H6            1 RES     
   10397 H6         524.2355  -528.1914   175.6459 H6            1 RES     
   10398 H6         524.6361  -530.4976   174.7258 H6            1 RES     
   10399 H6         526.1626  -530.6046   175.6779 H6            1 RES     
   10400 H6         524.9016  -530.4507   177.8120 H6            1 RES     
   10401 H6         524.3968  -531.8509   176.7967 H6            1 RES     
   10402 H6         522.3909  -530.5644   175.9982 H6            1 RES     
   10403 H6         522.8536  -529.1812   177.0667 H6            1 RES     
   10404 H6         521.1308  -530.5762   178.1370 H6            1 RES     
   10405 H6         522.1915  -532.0315   178.0155 H6            1 RES     
   10406 H6         522.6734  -530.6408   179.0722 H6            1 RES     
   10407 C0         529.1981  -528.4362   185.8408 C0            1 RES     
   10408 C1         528.2842  -528.4500   184.6088 C1            1 RES     
   10409 C1         527.4935  -529.5445   184.5501 C1            1 RES     
   10410 S2         526.4859  -529.5315   183.2160 S2            1 RES     
   10411 C1         527.0864  -528.0276   182.6791 C1            1 RES     
   10412 C1         528.0690  -527.5568   183.5575 C1            1 RES     
   10413 C1         527.7829  -530.3600   185.6734 C1            1 RES     
   10414 C1         528.7714  -529.7894   186.4226 C1            1 RES     
   10415 C1         529.1278  -530.5700   187.5271 C1            1 RES     
   10416 C1         528.3708  -531.7687   187.5787 C1            1 RES     
   10417 S2         527.2580  -531.8101   186.2847 S2            1 RES     
   10418 H3         528.5958  -526.6204   183.4376 H3            1 RES     
   10419 H3         529.8952  -530.2805   188.2291 H3            1 RES     
   10420 N4         527.5297  -534.8666   189.5567 N4            1 RES     
   10421 C1         527.4331  -533.8090   188.7014 C1            1 RES     
   10422 C1         528.5000  -532.8942   188.5428 C1            1 RES     
   10423 C1         529.6672  -533.1355   189.2897 C1            1 RES     
   10424 N4         530.7963  -532.3860   189.2205 N4            1 RES     
   10425 S2         531.8141  -533.1692   190.2609 S2            1 RES     
   10426 N4         530.9108  -534.4354   190.8163 N4            1 RES     
   10427 C1         529.7388  -534.2602   190.1598 C1            1 RES     
   10428 C1         528.6508  -535.1135   190.2853 C1            1 RES     
   10429 H5         526.5090  -533.6809   188.1545 H5            1 RES     
   10430 C0         528.6334  -527.2390   186.6974 C0            1 RES     
   10431 C0         528.9568  -526.8556   188.1845 C0            1 RES     
   10432 C0         527.7959  -525.9599   188.7531 C0            1 RES     
   10433 C0         527.6853  -524.4617   188.3420 C0            1 RES     
   10434 C0         527.3539  -524.1043   186.8781 C0            1 RES     
   10435 C0         526.0644  -524.7319   186.3146 C0            1 RES     
   10436 C0         524.7987  -524.2853   187.0582 C0            1 RES     
   10437 C0         523.5513  -524.8931   186.4204 C0            1 RES     
   10438 C0         530.2983  -526.1155   188.4531 C0            1 RES     
   10439 C0         531.5199  -527.0113   188.6362 C0            1 RES     
   10440 C0         532.7977  -526.1629   188.7716 C0            1 RES     
   10441 C0         534.0577  -527.0334   188.8992 C0            1 RES     
   10442 C0         535.3271  -526.1705   188.7932 C0            1 RES     
   10443 C0         536.6291  -526.9890   188.7134 C0            1 RES     
   10444 C0         536.7341  -527.8079   187.4112 C0            1 RES     
   10445 C0         538.0799  -528.5171   187.2985 C0            1 RES     
   10446 H6         528.7512  -526.3392   186.0775 H6            1 RES     
   10447 H6         527.5484  -527.4795   186.7441 H6            1 RES     
   10448 H6         528.9046  -527.7824   188.7982 H6            1 RES     
   10449 H6         527.9401  -525.9378   189.8569 H6            1 RES     
   10450 H6         526.8156  -526.4598   188.5984 H6            1 RES     
   10451 H6         528.6235  -523.9350   188.6164 H6            1 RES     
   10452 H6         526.8889  -524.0173   188.9760 H6            1 RES     
   10453 H6         528.2055  -524.3591   186.2260 H6            1 RES     
   10454 H6         527.2619  -522.9984   186.8080 H6            1 RES     
   10455 H6         526.1311  -525.8352   186.3319 H6            1 RES     
   10456 H6         525.9758  -524.4182   185.2513 H6            1 RES     
   10457 H6         524.8403  -524.6089   188.1189 H6            1 RES     
   10458 H6         524.7175  -523.1773   187.0204 H6            1 RES     
   10459 H6         523.4646  -524.5753   185.3593 H6            1 RES     
   10460 H6         522.6480  -524.5516   186.9683 H6            1 RES     
   10461 H6         523.5969  -526.0023   186.4655 H6            1 RES     
   10462 H6         530.2302  -525.5719   189.4224 H6            1 RES     
   10463 H6         530.4530  -525.3577   187.6535 H6            1 RES     
   10464 H6         531.3849  -527.6588   189.5298 H6            1 RES     
   10465 H6         531.6130  -527.6470   187.7662 H6            1 RES     
   10466 H6         532.8851  -525.5474   187.8482 H6            1 RES     
   10467 H6         532.7281  -525.4793   189.6457 H6            1 RES     
   10468 H6         534.0484  -527.6010   189.8545 H6            1 RES     
   10469 H6         534.0521  -527.7672   188.0838 H6            1 RES     
   10470 H6         535.2766  -525.5306   187.8842 H6            1 RES     
   10471 H6         535.3699  -525.5004   189.6799 H6            1 RES     
   10472 H6         536.7180  -527.6539   189.5990 H6            1 RES     
   10473 H6         537.4750  -526.2675   188.7311 H6            1 RES     
   10474 H6         536.6222  -527.1299   186.5361 H6            1 RES     
   10475 H6         535.9443  -528.5810   187.3696 H6            1 RES     
   10476 H6         538.1178  -529.0872   186.3478 H6            1 RES     
   10477 H6         538.9089  -527.7773   187.3021 H6            1 RES     
   10478 H6         538.2142  -529.2250   188.1453 H6            1 RES     
   10479 C0         530.6742  -528.2565   185.2999 C0            1 RES     
   10480 C0         531.8850  -529.1813   185.6572 C0            1 RES     
   10481 C0         533.2299  -528.3806   185.5571 C0            1 RES     
   10482 C0         533.8461  -528.0108   184.1853 C0            1 RES     
   10483 C0         533.1270  -526.9464   183.3316 C0            1 RES     
   10484 C0         532.8833  -525.5867   184.0198 C0            1 RES     
   10485 C0         534.1648  -524.8903   184.4959 C0            1 RES     
   10486 C0         533.8402  -523.5324   185.1155 C0            1 RES     
   10487 C0         532.0553  -530.4919   184.8342 C0            1 RES     
   10488 C0         530.9877  -531.5465   185.0720 C0            1 RES     
   10489 C0         531.3086  -532.8726   184.3812 C0            1 RES     
   10490 C0         530.2163  -533.8971   184.7083 C0            1 RES     
   10491 C0         530.4966  -535.2493   184.0416 C0            1 RES     
   10492 C0         529.4527  -536.3196   184.4033 C0            1 RES     
   10493 C0         528.0363  -535.9718   183.9182 C0            1 RES     
   10494 C0         527.0554  -537.0941   184.2404 C0            1 RES     
   10495 H6         530.6700  -528.1669   184.1997 H6            1 RES     
   10496 H6         530.9254  -527.2419   185.6466 H6            1 RES     
   10497 H6         531.7930  -529.4650   186.7239 H6            1 RES     
   10498 H6         533.9952  -529.0193   186.0494 H6            1 RES     
   10499 H6         533.1629  -527.4493   186.1445 H6            1 RES     
   10500 H6         533.9912  -528.9275   183.5783 H6            1 RES     
   10501 H6         534.8655  -527.6202   184.3926 H6            1 RES     
   10502 H6         532.1650  -527.3424   182.9648 H6            1 RES     
   10503 H6         533.7481  -526.7701   182.4266 H6            1 RES     
   10504 H6         532.2055  -525.7013   184.8837 H6            1 RES     
   10505 H6         532.3722  -524.9280   183.2835 H6            1 RES     
   10506 H6         534.6740  -525.5076   185.2655 H6            1 RES     
   10507 H6         534.8527  -524.7418   183.6359 H6            1 RES     
   10508 H6         533.3461  -522.8749   184.3683 H6            1 RES     
   10509 H6         534.7754  -523.0423   185.4575 H6            1 RES     
   10510 H6         533.1649  -523.6577   185.9895 H6            1 RES     
   10511 H6         533.0170  -530.9563   185.1479 H6            1 RES     
   10512 H6         532.1171  -530.2644   183.7479 H6            1 RES     
   10513 H6         530.9387  -531.7474   186.1607 H6            1 RES     
   10514 H6         530.0282  -531.1760   184.6755 H6            1 RES     
   10515 H6         531.3686  -532.7176   183.2822 H6            1 RES     
   10516 H6         532.2884  -533.2551   184.7464 H6            1 RES     
   10517 H6         530.1660  -534.0406   185.8109 H6            1 RES     
   10518 H6         529.2459  -533.4926   184.3533 H6            1 RES     
   10519 H6         530.5346  -535.1237   182.9376 H6            1 RES     
   10520 H6         531.4895  -535.6148   184.3850 H6            1 RES     
   10521 H6         529.4452  -536.4714   185.5054 H6            1 RES     
   10522 H6         529.7680  -537.2722   183.9241 H6            1 RES     
   10523 H6         528.0489  -535.8099   182.8186 H6            1 RES     
   10524 H6         527.6706  -535.0492   184.4147 H6            1 RES     
   10525 H6         526.0427  -536.8163   183.8793 H6            1 RES     
   10526 H6         527.3669  -538.0348   183.7387 H6            1 RES     
   10527 H6         527.0087  -537.2616   185.3377 H6            1 RES     
   10528 C0         529.3113  -538.2077   194.6678 C0            1 RES     
   10529 C1         529.0393  -537.6838   193.2518 C1            1 RES     
   10530 C1         528.6335  -538.6512   192.3997 C1            1 RES     
   10531 S2         528.3165  -538.0593   190.8685 S2            1 RES     
   10532 C1         528.7116  -536.4619   191.3188 C1            1 RES     
   10533 C1         529.0853  -536.4169   192.6669 C1            1 RES     
   10534 C1         528.6033  -539.8797   193.1072 C1            1 RES     
   10535 C1         529.0132  -539.6872   194.3952 C1            1 RES     
   10536 C1         529.0411  -540.8744   195.1339 C1            1 RES     
   10537 C1         528.6428  -541.9838   194.3446 C1            1 RES     
   10538 S2         528.2298  -541.4610   192.7728 S2            1 RES     
   10539 H3         529.3738  -535.5157   193.1897 H3            1 RES     
   10540 H3         529.3447  -540.9162   196.1692 H3            1 RES     
   10541 N4         527.8046  -545.6596   194.2935 N4            1 RES     
   10542 C1         527.8319  -544.3321   193.9832 C1            1 RES     
   10543 C1         528.6138  -543.4204   194.7299 C1            1 RES     
   10544 C1         529.3738  -543.9466   195.7901 C1            1 RES     
   10545 N4         530.2116  -543.2212   196.5734 N4            1 RES     
   10546 S2         530.8452  -544.3669   197.5823 S2            1 RES     
   10547 N4         530.1212  -545.7675   197.0910 N4            1 RES     
   10548 C1         529.3343  -545.3412   196.0739 C1            1 RES     
   10549 C1         528.5334  -546.1837   195.3147 C1            1 RES     
   10550 H5         527.2263  -543.9917   193.1545 H5            1 RES     
   10551 C0         528.1697  -537.5406   195.5265 C0            1 RES     
   10552 C0         527.7298  -537.8638   196.9979 C0            1 RES     
   10553 C0         526.2613  -537.3488   197.2249 C0            1 RES     
   10554 C0         525.9831  -535.8295   197.4260 C0            1 RES     
   10555 C0         526.2301  -534.8564   196.2544 C0            1 RES     
   10556 C0         525.4919  -535.1906   194.9439 C0            1 RES     
   10557 C0         523.9643  -535.1576   195.0841 C0            1 RES     
   10558 C0         523.2898  -535.4396   193.7433 C0            1 RES     
   10559 C0         528.6119  -537.2947   198.1458 C0            1 RES     
   10560 C0         529.8143  -538.1483   198.5379 C0            1 RES     
   10561 C0         530.6715  -537.4239   199.5922 C0            1 RES     
   10562 C0         531.9250  -538.2290   199.9691 C0            1 RES     
   10563 C0         532.8740  -537.3827   200.8355 C0            1 RES     
   10564 C0         534.2399  -538.0467   201.0903 C0            1 RES     
   10565 C0         535.0790  -538.1856   199.8043 C0            1 RES     
   10566 C0         536.4712  -538.7362   200.0967 C0            1 RES     
   10567 H6         528.3220  -536.4552   195.4443 H6            1 RES     
   10568 H6         527.2591  -537.8008   194.9432 H6            1 RES     
   10569 H6         527.6439  -538.9688   197.0968 H6            1 RES     
   10570 H6         525.9134  -537.8249   198.1693 H6            1 RES     
   10571 H6         525.5894  -537.7469   196.4345 H6            1 RES     
   10572 H6         526.5611  -535.4625   198.3002 H6            1 RES     
   10573 H6         524.9126  -535.7382   197.7075 H6            1 RES     
   10574 H6         527.3116  -534.7693   196.0586 H6            1 RES     
   10575 H6         525.9166  -533.8408   196.5809 H6            1 RES     
   10576 H6         525.8051  -536.1807   194.5646 H6            1 RES     
   10577 H6         525.7914  -534.4322   194.1876 H6            1 RES     
   10578 H6         523.6273  -535.9248   195.8116 H6            1 RES     
   10579 H6         523.6461  -534.1545   195.4419 H6            1 RES     
   10580 H6         523.5890  -534.6785   192.9913 H6            1 RES     
   10581 H6         522.1869  -535.4034   193.8656 H6            1 RES     
   10582 H6         523.5741  -536.4480   193.3733 H6            1 RES     
   10583 H6         528.0116  -537.2499   199.0825 H6            1 RES     
   10584 H6         528.9064  -536.2539   197.8859 H6            1 RES     
   10585 H6         529.4708  -539.1329   198.9238 H6            1 RES     
   10586 H6         530.4161  -538.3196   197.6559 H6            1 RES     
   10587 H6         530.9936  -536.4556   199.1475 H6            1 RES     
   10588 H6         530.0771  -537.2112   200.5074 H6            1 RES     
   10589 H6         531.6462  -539.1673   200.4952 H6            1 RES     
   10590 H6         532.4407  -538.5147   199.0441 H6            1 RES     
   10591 H6         533.0637  -536.4023   200.3446 H6            1 RES     
   10592 H6         532.3756  -537.1852   201.8101 H6            1 RES     
   10593 H6         534.0996  -539.0380   201.5719 H6            1 RES     
   10594 H6         534.7999  -537.3921   201.7934 H6            1 RES     
   10595 H6         535.1917  -537.1880   199.3248 H6            1 RES     
   10596 H6         534.5905  -538.8741   199.0899 H6            1 RES     
   10597 H6         537.0435  -538.8139   199.1497 H6            1 RES     
   10598 H6         537.0181  -538.0594   200.7875 H6            1 RES     
   10599 H6         536.3973  -539.7473   200.5534 H6            1 RES     
   10600 C0         530.7879  -537.7692   195.0301 C0            1 RES     
   10601 C0         531.9138  -538.7277   195.5425 C0            1 RES     
   10602 C0         532.9409  -537.9378   196.4262 C0            1 RES     
   10603 C0         533.9738  -536.9737   195.7921 C0            1 RES     
   10604 C0         533.4550  -535.6550   195.1832 C0            1 RES     
   10605 C0         532.6267  -534.7594   196.1286 C0            1 RES     
   10606 C0         533.3787  -534.3246   197.3932 C0            1 RES     
   10607 C0         532.5092  -533.4014   198.2447 C0            1 RES     
   10608 C0         532.7235  -539.5203   194.4746 C0            1 RES     
   10609 C0         531.9404  -540.5925   193.7358 C0            1 RES     
   10610 C0         532.8293  -541.4551   192.8389 C0            1 RES     
   10611 C0         531.9796  -542.5415   192.1697 C0            1 RES     
   10612 C0         532.8290  -543.4392   191.2620 C0            1 RES     
   10613 C0         532.0178  -544.5809   190.6259 C0            1 RES     
   10614 C0         530.9037  -544.0838   189.6910 C0            1 RES     
   10615 C0         530.1766  -545.2526   189.0345 C0            1 RES     
   10616 H6         531.2300  -537.1919   194.1996 H6            1 RES     
   10617 H6         530.6190  -537.0157   195.8151 H6            1 RES     
   10618 H6         531.4480  -539.4651   196.2251 H6            1 RES     
   10619 H6         533.5524  -538.7124   196.9381 H6            1 RES     
   10620 H6         532.4117  -537.3746   197.2132 H6            1 RES     
   10621 H6         534.5762  -537.5133   195.0333 H6            1 RES     
   10622 H6         534.6835  -536.6959   196.6007 H6            1 RES     
   10623 H6         532.8644  -535.8642   194.2753 H6            1 RES     
   10624 H6         534.3399  -535.0744   194.8431 H6            1 RES     
   10625 H6         531.6950  -535.2678   196.4326 H6            1 RES     
   10626 H6         532.3362  -533.8509   195.5565 H6            1 RES     
   10627 H6         533.6435  -535.2113   198.0065 H6            1 RES     
   10628 H6         534.3095  -533.7876   197.1102 H6            1 RES     
   10629 H6         532.2385  -532.4885   197.6718 H6            1 RES     
   10630 H6         533.0646  -533.0978   199.1564 H6            1 RES     
   10631 H6         531.5781  -533.9238   198.5538 H6            1 RES     
   10632 H6         533.5409  -540.0543   195.0091 H6            1 RES     
   10633 H6         533.1846  -538.8248   193.7402 H6            1 RES     
   10634 H6         531.4832  -541.2650   194.4886 H6            1 RES     
   10635 H6         531.1825  -540.1047   193.1013 H6            1 RES     
   10636 H6         533.3115  -540.8186   192.0658 H6            1 RES     
   10637 H6         533.6212  -541.9390   193.4541 H6            1 RES     
   10638 H6         531.5017  -543.1692   192.9549 H6            1 RES     
   10639 H6         531.1864  -542.0425   191.5756 H6            1 RES     
   10640 H6         533.3011  -542.8271   190.4629 H6            1 RES     
   10641 H6         533.6375  -543.8978   191.8730 H6            1 RES     
   10642 H6         531.5794  -545.2148   191.4282 H6            1 RES     
   10643 H6         532.7232  -545.2064   190.0361 H6            1 RES     
   10644 H6         531.3430  -543.4419   188.8970 H6            1 RES     
   10645 H6         530.1541  -543.4940   190.2583 H6            1 RES     
   10646 H6         529.3792  -544.8647   188.3661 H6            1 RES     
   10647 H6         530.8854  -545.8573   188.4298 H6            1 RES     
   10648 H6         529.7099  -545.8992   189.8080 H6            1 RES     
   10649 C0         527.9853  -550.9092   197.8809 C0            1 RES     
   10650 C1         528.2242  -549.8080   196.8399 C1            1 RES     
   10651 C1         528.4614  -550.2945   195.6016 C1            1 RES     
   10652 S2         528.6939  -549.0816   194.4745 S2            1 RES     
   10653 C1         528.4682  -547.8519   195.6353 C1            1 RES     
   10654 C1         528.2116  -548.4128   196.8917 C1            1 RES     
   10655 C1         528.4266  -551.7105   195.6684 C1            1 RES     
   10656 C1         528.1921  -552.1119   196.9521 C1            1 RES     
   10657 C1         528.1852  -553.5039   197.0876 C1            1 RES     
   10658 C1         528.4359  -554.1452   195.8474 C1            1 RES     
   10659 S2         528.6182  -552.9777   194.6152 S2            1 RES     
   10660 H3         528.0275  -547.8392   197.7893 H3            1 RES     
   10661 H3         528.0208  -554.0023   198.0311 H3            1 RES     
   10662 N4         528.5990  -557.4187   193.9833 N4            1 RES     
   10663 C1         528.4391  -556.0941   194.2648 C1            1 RES     
   10664 C1         528.5885  -555.6010   195.5819 C1            1 RES     
   10665 C1         528.9275  -556.5322   196.5800 C1            1 RES     
   10666 N4         529.1544  -556.2205   197.8811 N4            1 RES     
   10667 S2         529.5519  -557.6838   198.5390 S2            1 RES     
   10668 N4         529.4609  -558.7270   197.2620 N4            1 RES     
   10669 C1         529.1039  -557.9050   196.2460 C1            1 RES     
   10670 C1         528.9268  -558.3311   194.9366 C1            1 RES     
   10671 H5         528.1809  -555.4296   193.4516 H5            1 RES     
   10672 C0         526.4648  -550.7288   198.2568 C0            1 RES     
   10673 C0         525.5326  -551.6923   199.0726 C0            1 RES     
   10674 C0         524.0308  -551.3693   198.7353 C0            1 RES     
   10675 C0         523.3413  -550.1120   199.3434 C0            1 RES     
   10676 C0         523.8232  -548.7089   198.9194 C0            1 RES     
   10677 C0         523.8141  -548.4312   197.4039 C0            1 RES     
   10678 C0         522.4122  -548.5000   196.7841 C0            1 RES     
   10679 C0         522.4592  -548.1605   195.2959 C0            1 RES     
   10680 C0         525.6806  -551.6838   200.6210 C0            1 RES     
   10681 C0         526.7675  -552.5949   201.1840 C0            1 RES     
   10682 C0         526.8966  -552.4060   202.7067 C0            1 RES     
   10683 C0         528.0231  -553.2658   203.3014 C0            1 RES     
   10684 C0         528.2831  -552.8813   204.7683 C0            1 RES     
   10685 C0         529.5261  -553.5574   205.3761 C0            1 RES     
   10686 C0         530.8382  -553.0806   204.7217 C0            1 RES     
   10687 C0         532.0613  -553.6720   205.4155 C0            1 RES     
   10688 H6         526.3748  -549.7204   198.6845 H6            1 RES     
   10689 H6         525.9787  -550.7178   197.2563 H6            1 RES     
   10690 H6         525.6782  -552.7243   198.6825 H6            1 RES     
   10691 H6         523.4391  -552.2288   199.1236 H6            1 RES     
   10692 H6         523.8740  -551.3822   197.6354 H6            1 RES     
   10693 H6         523.3879  -550.1669   200.4514 H6            1 RES     
   10694 H6         522.2648  -550.1823   199.0791 H6            1 RES     
   10695 H6         524.8305  -548.5180   199.3250 H6            1 RES     
   10696 H6         523.1693  -547.9582   199.4145 H6            1 RES     
   10697 H6         524.4841  -549.1353   196.8770 H6            1 RES     
   10698 H6         524.2166  -547.4061   197.2485 H6            1 RES     
   10699 H6         521.9912  -549.5207   196.8953 H6            1 RES     
   10700 H6         521.7438  -547.7746   197.2967 H6            1 RES     
   10701 H6         522.8589  -547.1350   195.1448 H6            1 RES     
   10702 H6         521.4350  -548.2088   194.8697 H6            1 RES     
   10703 H6         523.1043  -548.8858   194.7553 H6            1 RES     
   10704 H6         524.7478  -552.0812   201.0813 H6            1 RES     
   10705 H6         525.8008  -550.6316   200.9613 H6            1 RES     
   10706 H6         526.5376  -553.6550   200.9403 H6            1 RES     
   10707 H6         527.7084  -552.3350   200.7186 H6            1 RES     
   10708 H6         527.1366  -551.3343   202.8877 H6            1 RES     
   10709 H6         525.9382  -552.6439   203.2177 H6            1 RES     
   10710 H6         527.7792  -554.3467   203.2169 H6            1 RES     
   10711 H6         528.9343  -553.0905   202.7164 H6            1 RES     
   10712 H6         528.4242  -551.7808   204.8532 H6            1 RES     
   10713 H6         527.3870  -553.1573   205.3666 H6            1 RES     
   10714 H6         529.4347  -554.6622   205.3037 H6            1 RES     
   10715 H6         529.5613  -553.2789   206.4521 H6            1 RES     
   10716 H6         530.9031  -551.9716   204.7848 H6            1 RES     
   10717 H6         530.8784  -553.3825   203.6586 H6            1 RES     
   10718 H6         532.9817  -553.2999   204.9210 H6            1 RES     
   10719 H6         532.0849  -553.3683   206.4840 H6            1 RES     
   10720 H6         532.0431  -554.7817   205.3482 H6            1 RES     
   10721 C0         529.0172  -550.6484   199.0517 C0            1 RES     
   10722 C0         530.0111  -551.7090   199.6315 C0            1 RES     
   10723 C0         530.3455  -551.3809   201.1283 C0            1 RES     
   10724 C0         531.2880  -550.2109   201.5044 C0            1 RES     
   10725 C0         530.7798  -548.7716   201.2829 C0            1 RES     
   10726 C0         529.4420  -548.4195   201.9670 C0            1 RES     
   10727 C0         529.4586  -548.5865   203.4920 C0            1 RES     
   10728 C0         528.1181  -548.1683   204.0931 C0            1 RES     
   10729 C0         531.3603  -551.9143   198.8820 C0            1 RES     
   10730 C0         531.2447  -552.5541   197.5087 C0            1 RES     
   10731 C0         532.6070  -552.8974   196.9048 C0            1 RES     
   10732 C0         532.4070  -553.5828   195.5483 C0            1 RES     
   10733 C0         533.7479  -553.9534   194.9031 C0            1 RES     
   10734 C0         533.5806  -554.7022   193.5699 C0            1 RES     
   10735 C0         532.8860  -553.8617   192.4866 C0            1 RES     
   10736 C0         532.8073  -554.6235   191.1679 C0            1 RES     
   10737 H6         529.6188  -549.7479   198.8377 H6            1 RES     
   10738 H6         528.3572  -550.3353   199.8758 H6            1 RES     
   10739 H6         529.4897  -552.6858   199.6564 H6            1 RES     
   10740 H6         530.8465  -552.2891   201.5285 H6            1 RES     
   10741 H6         529.4152  -551.2466   201.7055 H6            1 RES     
   10742 H6         532.2647  -550.3352   200.9941 H6            1 RES     
   10743 H6         531.4987  -550.3127   202.5908 H6            1 RES     
   10744 H6         530.6990  -548.5611   200.2030 H6            1 RES     
   10745 H6         531.5593  -548.0800   201.6699 H6            1 RES     
   10746 H6         528.6198  -549.0315   201.5567 H6            1 RES     
   10747 H6         529.2151  -547.3573   201.7272 H6            1 RES     
   10748 H6         529.6404  -549.6484   203.7601 H6            1 RES     
   10749 H6         530.2644  -547.9585   203.9293 H6            1 RES     
   10750 H6         527.9079  -547.1015   203.8640 H6            1 RES     
   10751 H6         528.1441  -548.2971   205.1951 H6            1 RES     
   10752 H6         527.2975  -548.7951   203.6817 H6            1 RES     
   10753 H6         531.9744  -552.6134   199.4927 H6            1 RES     
   10754 H6         531.9096  -550.9515   198.7981 H6            1 RES     
   10755 H6         530.6854  -553.5046   197.6178 H6            1 RES     
   10756 H6         530.7360  -551.8496   196.8306 H6            1 RES     
   10757 H6         533.2053  -551.9692   196.7780 H6            1 RES     
   10758 H6         533.1527  -553.5889   197.5857 H6            1 RES     
   10759 H6         531.8053  -554.5084   195.6900 H6            1 RES     
   10760 H6         531.8477  -552.8873   194.8890 H6            1 RES     
   10761 H6         534.3541  -553.0355   194.7416 H6            1 RES     
   10762 H6         534.3038  -554.6201   195.5986 H6            1 RES     
   10763 H6         533.0076  -555.6402   193.7419 H6            1 RES     
   10764 H6         534.5959  -554.9772   193.2090 H6            1 RES     
   10765 H6         533.4543  -552.9203   192.3247 H6            1 RES     
   10766 H6         531.8501  -553.6094   192.7946 H6            1 RES     
   10767 H6         532.3022  -553.9936   190.4055 H6            1 RES     
   10768 H6         533.8270  -554.8731   190.8051 H6            1 RES     
   10769 H6         532.2248  -555.5604   191.2986 H6            1 RES     
   10770 C0         528.4816  -563.7175   194.8620 C0            1 RES     
   10771 C1         528.8705  -562.2594   194.5860 C1            1 RES     
   10772 C1         529.7192  -562.1278   193.5425 C1            1 RES     
   10773 S2         530.1124  -560.5314   193.2388 S2            1 RES     
   10774 C1         529.1302  -559.9650   194.5135 C1            1 RES     
   10775 C1         528.5060  -561.0391   195.1581 C1            1 RES     
   10776 C1         529.9969  -563.4213   193.0322 C1            1 RES     
   10777 C1         529.3425  -564.3650   193.7705 C1            1 RES     
   10778 C1         529.6097  -565.6676   193.3370 C1            1 RES     
   10779 C1         530.5078  -565.6729   192.2389 C1            1 RES     
   10780 S2         530.9127  -564.0705   191.8109 S2            1 RES     
   10781 H3         527.8277  -560.9377   195.9938 H3            1 RES     
   10782 H3         529.1841  -566.5424   193.8051 H3            1 RES     
   10783 N4         532.2197  -567.7449   189.5945 N4            1 RES     
   10784 C1         531.6457  -566.6948   190.2481 C1            1 RES     
   10785 C1         531.0998  -566.8473   191.5438 C1            1 RES     
   10786 C1         531.1935  -568.1213   192.1326 C1            1 RES     
   10787 N4         530.7653  -568.4266   193.3836 N4            1 RES     
   10788 S2         531.1811  -570.0197   193.5289 S2            1 RES     
   10789 N4         531.8917  -570.3745   192.0810 N4            1 RES     
   10790 C1         531.8157  -569.1902   191.4274 C1            1 RES     
   10791 C1         532.3182  -568.9821   190.1500 C1            1 RES     
   10792 H5         531.6075  -565.7406   189.7408 H5            1 RES     
   10793 C0         526.9507  -563.7612   194.4874 C0            1 RES     
   10794 C0         526.0190  -565.0106   194.3029 C0            1 RES     
   10795 C0         524.7734  -564.6044   193.4330 C0            1 RES     
   10796 C0         523.6140  -563.7740   194.0593 C0            1 RES     
   10797 C0         523.8815  -562.3203   194.5017 C0            1 RES     
   10798 C0         524.4510  -561.3875   193.4155 C0            1 RES     
   10799 C0         523.5057  -561.2006   192.2215 C0            1 RES     
   10800 C0         524.0979  -560.2239   191.2078 C0            1 RES     
   10801 C0         525.4889  -565.6998   195.5927 C0            1 RES     
   10802 C0         526.4160  -566.7419   196.2115 C0            1 RES     
   10803 C0         525.8374  -567.2591   197.5414 C0            1 RES     
   10804 C0         526.7734  -568.2689   198.2240 C0            1 RES     
   10805 C0         526.2865  -568.5835   199.6492 C0            1 RES     
   10806 C0         527.2751  -569.4328   200.4696 C0            1 RES     
   10807 C0         528.5859  -568.6818   200.7778 C0            1 RES     
   10808 C0         529.5003  -569.4949   201.6885 C0            1 RES     
   10809 H6         526.4508  -563.0576   195.1678 H6            1 RES     
   10810 H6         526.9482  -563.3102   193.4706 H6            1 RES     
   10811 H6         526.5571  -565.7509   193.6700 H6            1 RES     
   10812 H6         524.2959  -565.5597   193.1187 H6            1 RES     
   10813 H6         525.1064  -564.1220   192.4890 H6            1 RES     
   10814 H6         523.1973  -564.3229   194.9299 H6            1 RES     
   10815 H6         522.8024  -563.7417   193.3017 H6            1 RES     
   10816 H6         524.5439  -562.3105   195.3830 H6            1 RES     
   10817 H6         522.9216  -561.8897   194.8616 H6            1 RES     
   10818 H6         525.4274  -561.7617   193.0566 H6            1 RES     
   10819 H6         524.6249  -560.3940   193.8843 H6            1 RES     
   10820 H6         523.3333  -562.1706   191.7108 H6            1 RES     
   10821 H6         522.5317  -560.8009   192.5782 H6            1 RES     
   10822 H6         524.2675  -559.2320   191.6788 H6            1 RES     
   10823 H6         523.3955  -560.0975   190.3572 H6            1 RES     
   10824 H6         525.0634  -560.6114   190.8178 H6            1 RES     
   10825 H6         524.5730  -566.2835   195.3472 H6            1 RES     
   10826 H6         525.1993  -564.9127   196.3236 H6            1 RES     
   10827 H6         526.5706  -567.5822   195.5000 H6            1 RES     
   10828 H6         527.3739  -566.2782   196.4039 H6            1 RES     
   10829 H6         525.7155  -566.3799   198.2130 H6            1 RES     
   10830 H6         524.8397  -567.7241   197.3847 H6            1 RES     
   10831 H6         526.8531  -569.2000   197.6227 H6            1 RES     
   10832 H6         527.7762  -567.8272   198.2756 H6            1 RES     
   10833 H6         526.1121  -567.6374   200.2085 H6            1 RES     
   10834 H6         525.3152  -569.1206   199.5767 H6            1 RES     
   10835 H6         527.4885  -570.3872   199.9426 H6            1 RES     
   10836 H6         526.7828  -569.6702   201.4380 H6            1 RES     
   10837 H6         528.3522  -567.7200   201.2861 H6            1 RES     
   10838 H6         529.1441  -568.4693   199.8470 H6            1 RES     
   10839 H6         530.4260  -568.9185   201.8913 H6            1 RES     
   10840 H6         528.9952  -569.7068   202.6551 H6            1 RES     
   10841 H6         529.7768  -570.4543   201.1992 H6            1 RES     
   10842 C0         528.8241  -563.9907   196.3825 C0            1 RES     
   10843 C0         529.6983  -565.1759   196.9116 C0            1 RES     
   10844 C0         529.2770  -565.5526   198.3746 C0            1 RES     
   10845 C0         529.6626  -564.6580   199.5786 C0            1 RES     
   10846 C0         528.9706  -563.2861   199.7125 C0            1 RES     
   10847 C0         527.4277  -563.3120   199.7346 C0            1 RES     
   10848 C0         526.8345  -564.1502   200.8745 C0            1 RES     
   10849 C0         525.3088  -564.0796   200.8557 C0            1 RES     
   10850 C0         531.2440  -564.9892   196.9003 C0            1 RES     
   10851 C0         531.8781  -564.9413   195.5204 C0            1 RES     
   10852 C0         533.4063  -564.9432   195.5765 C0            1 RES     
   10853 C0         533.9704  -564.9455   194.1511 C0            1 RES     
   10854 C0         535.5039  -564.9536   194.1539 C0            1 RES     
   10855 C0         536.1017  -565.0222   192.7382 C0            1 RES     
   10856 C0         535.7550  -563.7988   191.8749 C0            1 RES     
   10857 C0         536.4272  -563.8835   190.5087 C0            1 RES     
   10858 H6         529.2265  -563.0774   196.8540 H6            1 RES     
   10859 H6         527.8232  -564.0994   196.8288 H6            1 RES     
   10860 H6         529.4644  -566.0700   196.3012 H6            1 RES     
   10861 H6         529.7607  -566.5319   198.5821 H6            1 RES     
   10862 H6         528.1873  -565.7151   198.4269 H6            1 RES     
   10863 H6         530.7621  -564.5157   199.6051 H6            1 RES     
   10864 H6         529.4097  -565.2351   200.4939 H6            1 RES     
   10865 H6         529.3084  -562.6119   198.9073 H6            1 RES     
   10866 H6         529.3229  -562.8266   200.6615 H6            1 RES     
   10867 H6         527.0290  -563.6910   198.7773 H6            1 RES     
   10868 H6         527.0788  -562.2617   199.8455 H6            1 RES     
   10869 H6         527.1319  -565.2140   200.7639 H6            1 RES     
   10870 H6         527.2035  -563.7695   201.8512 H6            1 RES     
   10871 H6         524.9688  -563.0296   200.9849 H6            1 RES     
   10872 H6         524.8942  -564.6923   201.6831 H6            1 RES     
   10873 H6         524.9155  -564.4712   199.8926 H6            1 RES     
   10874 H6         531.6874  -565.8748   197.4084 H6            1 RES     
   10875 H6         531.5307  -564.0803   197.4724 H6            1 RES     
   10876 H6         531.5691  -565.8509   194.9678 H6            1 RES     
   10877 H6         531.5542  -564.0181   195.0127 H6            1 RES     
   10878 H6         533.7622  -564.0446   196.1255 H6            1 RES     
   10879 H6         533.7583  -565.8553   196.1093 H6            1 RES     
   10880 H6         533.6046  -565.8487   193.6131 H6            1 RES     
   10881 H6         533.5964  -564.0400   193.6301 H6            1 RES     
   10882 H6         535.8839  -564.0483   194.6756 H6            1 RES     
   10883 H6         535.8527  -565.8499   194.7127 H6            1 RES     
   10884 H6         535.7511  -565.9494   192.2332 H6            1 RES     
   10885 H6         537.2073  -565.0810   192.8427 H6            1 RES     
   10886 H6         536.0965  -562.8732   192.3869 H6            1 RES     
   10887 H6         534.6593  -563.7368   191.7102 H6            1 RES     
   10888 H6         536.1599  -562.9887   189.9079 H6            1 RES     
   10889 H6         537.5314  -563.9187   190.6234 H6            1 RES     
   10890 H6         536.0855  -564.7913   189.9670 H6            1 RES     
   10891 C0         533.2411  -573.7611   187.7994 C0            1 RES     
   10892 C1         533.3516  -572.3274   188.3338 C1            1 RES     
   10893 C1         534.5048  -571.7188   187.9784 C1            1 RES     
   10894 S2         534.5978  -570.1491   188.5466 S2            1 RES     
   10895 C1         533.0639  -570.2429   189.2873 C1            1 RES     
   10896 C1         532.5001  -571.5064   189.0756 C1            1 RES     
   10897 C1         535.2715  -572.6351   187.2147 C1            1 RES     
   10898 C1         534.6106  -573.8253   187.1121 C1            1 RES     
   10899 C1         535.3378  -574.7846   186.3999 C1            1 RES     
   10900 C1         536.5898  -574.2722   185.9730 C1            1 RES     
   10901 S2         536.7444  -572.6407   186.4516 S2            1 RES     
   10902 H3         531.5287  -571.8094   189.4405 H3            1 RES     
   10903 H3         534.9751  -575.7860   186.2231 H3            1 RES     
   10904 N4         539.7006  -574.8848   183.9323 N4            1 RES     
   10905 C1         538.6720  -574.2572   184.5706 C1            1 RES     
   10906 C1         537.6813  -574.9916   185.2629 C1            1 RES     
   10907 C1         537.8160  -576.3916   185.2794 C1            1 RES     
   10908 N4         536.9833  -577.2392   185.9349 N4            1 RES     
   10909 S2         537.6635  -578.7159   185.6370 S2            1 RES     
   10910 N4         538.9834  -578.3613   184.7099 N4            1 RES     
   10911 C1         538.9130  -577.0115   184.6167 C1            1 RES     
   10912 C1         539.8449  -576.2369   183.9391 C1            1 RES     
   10913 H5         538.6272  -573.1778   184.5219 H5            1 RES     
   10914 C0         532.0732  -573.6657   186.7446 C0            1 RES     
   10915 C0         531.6345  -574.7175   185.6656 C0            1 RES     
   10916 C0         530.8190  -573.9904   184.5344 C0            1 RES     
   10917 C0         529.3429  -573.5597   184.7822 C0            1 RES     
   10918 C0         529.0432  -572.4574   185.8194 C0            1 RES     
   10919 C0         529.7802  -571.1216   185.6037 C0            1 RES     
   10920 C0         529.4168  -570.4366   184.2797 C0            1 RES     
   10921 C0         530.1324  -569.0938   184.1488 C0            1 RES     
   10922 C0         530.7876  -575.9273   186.1540 C0            1 RES     
   10923 C0         531.5825  -577.1151   186.6884 C0            1 RES     
   10924 C0         530.6354  -578.1910   187.2511 C0            1 RES     
   10925 C0         531.4033  -579.3786   187.8523 C0            1 RES     
   10926 C0         530.4476  -580.3147   188.6123 C0            1 RES     
   10927 C0         531.1648  -581.4203   189.4090 C0            1 RES     
   10928 C0         532.0007  -580.8602   190.5772 C0            1 RES     
   10929 C0         532.6062  -581.9761   191.4227 C0            1 RES     
   10930 H6         531.1803  -573.3574   187.3065 H6            1 RES     
   10931 H6         532.3955  -572.8038   186.1197 H6            1 RES     
   10932 H6         532.5493  -575.0792   185.1454 H6            1 RES     
   10933 H6         530.7624  -574.7110   183.6876 H6            1 RES     
   10934 H6         531.3961  -573.1258   184.1417 H6            1 RES     
   10935 H6         528.7397  -574.4523   185.0510 H6            1 RES     
   10936 H6         528.9478  -573.2068   183.8059 H6            1 RES     
   10937 H6         529.2455  -572.8321   186.8364 H6            1 RES     
   10938 H6         527.9495  -572.2582   185.8011 H6            1 RES     
   10939 H6         530.8745  -571.2706   185.6524 H6            1 RES     
   10940 H6         529.4970  -570.4438   186.4388 H6            1 RES     
   10941 H6         529.7136  -571.0744   183.4215 H6            1 RES     
   10942 H6         528.3194  -570.2637   184.2401 H6            1 RES     
   10943 H6         529.8449  -568.4185   184.9828 H6            1 RES     
   10944 H6         529.8499  -568.6125   183.1889 H6            1 RES     
   10945 H6         531.2336  -569.2409   184.1628 H6            1 RES     
   10946 H6         530.2304  -576.3577   185.2914 H6            1 RES     
   10947 H6         530.0372  -575.5627   186.8899 H6            1 RES     
   10948 H6         532.2194  -577.5391   185.8817 H6            1 RES     
   10949 H6         532.2274  -576.7669   187.4836 H6            1 RES     
   10950 H6         530.0348  -577.7135   188.0575 H6            1 RES     
   10951 H6         529.9408  -578.5575   186.4641 H6            1 RES     
   10952 H6         531.9495  -579.9351   187.0605 H6            1 RES     
   10953 H6         532.1525  -578.9852   188.5503 H6            1 RES     
   10954 H6         529.8329  -579.7281   189.3309 H6            1 RES     
   10955 H6         529.7575  -580.7829   187.8763 H6            1 RES     
   10956 H6         531.8019  -582.0282   188.7316 H6            1 RES     
   10957 H6         530.3800  -582.0812   189.8378 H6            1 RES     
   10958 H6         531.3521  -580.2378   191.2330 H6            1 RES     
   10959 H6         532.8330  -580.2371   190.2003 H6            1 RES     
   10960 H6         533.1918  -581.5327   192.2538 H6            1 RES     
   10961 H6         531.8049  -582.6137   191.8537 H6            1 RES     
   10962 H6         533.2835  -582.6040   190.8035 H6            1 RES     
   10963 C0         532.9598  -574.6845   189.0531 C0            1 RES     
   10964 C0         533.7807  -575.9606   189.4363 C0            1 RES     
   10965 C0         532.8810  -576.9676   190.2340 C0            1 RES     
   10966 C0         532.4941  -576.7056   191.7106 C0            1 RES     
   10967 C0         531.5066  -575.5587   192.0079 C0            1 RES     
   10968 C0         530.1554  -575.6271   191.2654 C0            1 RES     
   10969 C0         529.3524  -576.9034   191.5482 C0            1 RES     
   10970 C0         528.0107  -576.8668   190.8191 C0            1 RES     
   10971 C0         535.0915  -575.7537   190.2507 C0            1 RES     
   10972 C0         536.2199  -575.0726   189.4949 C0            1 RES     
   10973 C0         537.5317  -575.0647   190.2809 C0            1 RES     
   10974 C0         538.6302  -574.4093   189.4362 C0            1 RES     
   10975 C0         539.9706  -574.3828   190.1805 C0            1 RES     
   10976 C0         541.1103  -573.7902   189.3342 C0            1 RES     
   10977 C0         540.8831  -572.3168   188.9600 C0            1 RES     
   10978 C0         542.0705  -571.7593   188.1824 C0            1 RES     
   10979 H6         532.8941  -574.0742   189.9705 H6            1 RES     
   10980 H6         531.9217  -575.0060   188.8749 H6            1 RES     
   10981 H6         534.0479  -576.4871   188.4993 H6            1 RES     
   10982 H6         533.4482  -577.9235   190.2544 H6            1 RES     
   10983 H6         531.9454  -577.1611   189.6828 H6            1 RES     
   10984 H6         533.4096  -576.5656   192.3205 H6            1 RES     
   10985 H6         532.0217  -577.6399   192.0832 H6            1 RES     
   10986 H6         531.9833  -574.5858   191.8004 H6            1 RES     
   10987 H6         531.3023  -575.5701   193.1006 H6            1 RES     
   10988 H6         530.3036  -575.5411   190.1747 H6            1 RES     
   10989 H6         529.5539  -574.7487   191.5876 H6            1 RES     
   10990 H6         529.9121  -577.7952   191.1960 H6            1 RES     
   10991 H6         529.1697  -576.9972   192.6404 H6            1 RES     
   10992 H6         527.4092  -575.9968   191.1598 H6            1 RES     
   10993 H6         527.4428  -577.7967   191.0305 H6            1 RES     
   10994 H6         528.1691  -576.7894   189.7216 H6            1 RES     
   10995 H6         535.4736  -576.7629   190.5234 H6            1 RES     
   10996 H6         534.8830  -575.1955   191.1891 H6            1 RES     
   10997 H6         536.4008  -575.6407   188.5608 H6            1 RES     
   10998 H6         535.9330  -574.0272   189.2950 H6            1 RES     
   10999 H6         537.3959  -574.5036   191.2308 H6            1 RES     
   11000 H6         537.8298  -576.1108   190.5185 H6            1 RES     
   11001 H6         538.7537  -574.9796   188.4883 H6            1 RES     
   11002 H6         538.3094  -573.3749   189.1947 H6            1 RES     
   11003 H6         539.8660  -573.8028   191.1233 H6            1 RES     
   11004 H6         540.2511  -575.4267   190.4430 H6            1 RES     
   11005 H6         541.2387  -574.3965   188.4103 H6            1 RES     
   11006 H6         542.0458  -573.8646   189.9308 H6            1 RES     
   11007 H6         540.7441  -571.7153   189.8843 H6            1 RES     
   11008 H6         539.9810  -572.2121   188.3222 H6            1 RES     
   11009 H6         541.8794  -570.6958   187.9261 H6            1 RES     
   11010 H6         542.9949  -571.8173   188.7955 H6            1 RES     
   11011 H6         542.2178  -572.3315   187.2416 H6            1 RES     
   11012 C0         542.7851  -579.4140   180.7022 C0            1 RES     
   11013 C1         542.3139  -578.3748   181.7276 C1            1 RES     
   11014 C1         543.3276  -577.6451   182.2439 C1            1 RES     
   11015 S2         542.7946  -576.5003   183.3396 S2            1 RES     
   11016 C1         541.1623  -576.9540   183.1390 C1            1 RES     
   11017 C1         541.0599  -577.9976   182.2121 C1            1 RES     
   11018 C1         544.5394  -578.0992   181.6644 C1            1 RES     
   11019 C1         544.2886  -579.1291   180.8040 C1            1 RES     
   11020 C1         545.4542  -579.6458   180.2291 C1            1 RES     
   11021 C1         546.6075  -578.9674   180.7002 C1            1 RES     
   11022 S2         546.1516  -577.7256   181.7794 S2            1 RES     
   11023 H3         540.1283  -578.4550   181.9094 H3            1 RES     
   11024 H3         545.4504  -580.4670   179.5282 H3            1 RES     
   11025 N4         550.3372  -578.5198   180.3753 N4            1 RES     
   11026 C1         549.0184  -578.2723   180.6180 C1            1 RES     
   11027 C1         548.0335  -579.2627   180.3965 C1            1 RES     
   11028 C1         548.4769  -580.5154   179.9353 C1            1 RES     
   11029 N4         547.6726  -581.5866   179.7181 N4            1 RES     
   11030 S2         548.7443  -582.7530   179.2460 S2            1 RES     
   11031 N4         550.2068  -581.9875   179.2970 N4            1 RES     
   11032 C1         549.8641  -580.7434   179.7098 C1            1 RES     
   11033 C1         550.7817  -579.7250   179.9297 C1            1 RES     
   11034 H5         548.7434  -577.2888   180.9739 H5            1 RES     
   11035 C0         542.1898  -578.8786   179.3440 C0            1 RES     
   11036 C0         542.5146  -579.3385   177.8790 C0            1 RES     
   11037 C0         542.1096  -578.1972   176.8756 C0            1 RES     
   11038 C0         540.6124  -577.9590   176.5186 C0            1 RES     
   11039 C0         539.6483  -577.4521   177.6113 C0            1 RES     
   11040 C0         540.0662  -576.1466   178.3150 C0            1 RES     
   11041 C0         540.1481  -574.9454   177.3638 C0            1 RES     
   11042 C0         540.5096  -573.6727   178.1264 C0            1 RES     
   11043 C0         541.8549  -580.6574   177.3843 C0            1 RES     
   11044 C0         542.6048  -581.9400   177.7321 C0            1 RES     
   11045 C0         541.7942  -583.1753   177.2986 C0            1 RES     
   11046 C0         542.4922  -584.4885   177.6857 C0            1 RES     
   11047 C0         541.5570  -585.6887   177.4566 C0            1 RES     
   11048 C0         542.1082  -587.0184   178.0040 C0            1 RES     
   11049 C0         542.2093  -587.0281   179.5425 C0            1 RES     
   11050 C0         542.6446  -588.3916   180.0699 C0            1 RES     
   11051 H6         541.0979  -578.8782   179.4696 H6            1 RES     
   11052 H6         542.5318  -577.8202   179.3426 H6            1 RES     
   11053 H6         543.6206  -579.4048   177.7762 H6            1 RES     
   11054 H6         542.5909  -578.4581   175.9062 H6            1 RES     
   11055 H6         542.5751  -577.2356   177.1812 H6            1 RES     
   11056 H6         540.1835  -578.8902   176.0922 H6            1 RES     
   11057 H6         540.5979  -577.2119   175.6967 H6            1 RES     
   11058 H6         539.4823  -578.2414   178.3629 H6            1 RES     
   11059 H6         538.6532  -577.2911   177.1421 H6            1 RES     
   11060 H6         541.0370  -576.2766   178.8277 H6            1 RES     
   11061 H6         539.3031  -575.9264   179.0936 H6            1 RES     
   11062 H6         540.9233  -575.1193   176.5891 H6            1 RES     
   11063 H6         539.1650  -574.7985   176.8661 H6            1 RES     
   11064 H6         539.7438  -573.4543   178.9011 H6            1 RES     
   11065 H6         540.5560  -572.8159   177.4216 H6            1 RES     
   11066 H6         541.5007  -573.7850   178.6159 H6            1 RES     
   11067 H6         541.8367  -580.6638   176.2710 H6            1 RES     
   11068 H6         540.8003  -580.6822   177.7374 H6            1 RES     
   11069 H6         543.6045  -581.9387   177.2454 H6            1 RES     
   11070 H6         542.7479  -581.9743   178.8035 H6            1 RES     
   11071 H6         540.8136  -583.1279   177.8232 H6            1 RES     
   11072 H6         541.6086  -583.1620   176.2024 H6            1 RES     
   11073 H6         543.4378  -584.6142   177.1157 H6            1 RES     
   11074 H6         542.7568  -584.4363   178.7489 H6            1 RES     
   11075 H6         540.5755  -585.5046   177.9476 H6            1 RES     
   11076 H6         541.3779  -585.7891   176.3634 H6            1 RES     
   11077 H6         543.0969  -587.2395   177.5481 H6            1 RES     
   11078 H6         541.3976  -587.8194   177.7043 H6            1 RES     
   11079 H6         541.2163  -586.7846   179.9815 H6            1 RES     
   11080 H6         542.9484  -586.2831   179.8915 H6            1 RES     
   11081 H6         542.6980  -588.3587   181.1773 H6            1 RES     
   11082 H6         541.9131  -589.1733   179.7728 H6            1 RES     
   11083 H6         543.6484  -588.6560   179.6715 H6            1 RES     
   11084 C0         542.2265  -580.8107   181.1931 C0            1 RES     
   11085 C0         543.0842  -582.1030   181.4009 C0            1 RES     
   11086 C0         542.1989  -583.3821   181.2012 C0            1 RES     
   11087 C0         541.1717  -583.8250   182.2723 C0            1 RES     
   11088 C0         539.9102  -582.9595   182.4676 C0            1 RES     
   11089 C0         539.0612  -582.7155   181.2021 C0            1 RES     
   11090 C0         538.5429  -583.9997   180.5418 C0            1 RES     
   11091 C0         537.6716  -583.6680   179.3319 C0            1 RES     
   11092 C0         543.8345  -582.2569   182.7564 C0            1 RES     
   11093 C0         544.9793  -581.2820   182.9745 C0            1 RES     
   11094 C0         545.7898  -581.6005   184.2317 C0            1 RES     
   11095 C0         546.9524  -580.6091   184.3555 C0            1 RES     
   11096 C0         547.8011  -580.8914   185.6011 C0            1 RES     
   11097 C0         549.0152  -579.9543   185.7195 C0            1 RES     
   11098 C0         548.6254  -578.4766   185.8833 C0            1 RES     
   11099 C0         549.8604  -577.6007   186.0654 C0            1 RES     
   11100 H6         541.6345  -580.6828   182.1160 H6            1 RES     
   11101 H6         541.4716  -581.0404   180.4248 H6            1 RES     
   11102 H6         543.8407  -582.1426   180.5928 H6            1 RES     
   11103 H6         542.9130  -584.2307   181.1245 H6            1 RES     
   11104 H6         541.6615  -583.3267   180.2395 H6            1 RES     
   11105 H6         541.6793  -583.9551   183.2497 H6            1 RES     
   11106 H6         540.8229  -584.8373   181.9750 H6            1 RES     
   11107 H6         540.1836  -581.9872   182.9114 H6            1 RES     
   11108 H6         539.2705  -583.4684   183.2210 H6            1 RES     
   11109 H6         539.6333  -582.1423   180.4517 H6            1 RES     
   11110 H6         538.1901  -582.0917   181.5010 H6            1 RES     
   11111 H6         539.3934  -584.6228   180.1939 H6            1 RES     
   11112 H6         537.9419  -584.5814   181.2735 H6            1 RES     
   11113 H6         536.7947  -583.0601   179.6421 H6            1 RES     
   11114 H6         537.3068  -584.6056   178.8634 H6            1 RES     
   11115 H6         538.2576  -583.0991   178.5778 H6            1 RES     
   11116 H6         544.2924  -583.2713   182.7672 H6            1 RES     
   11117 H6         543.1213  -582.1882   183.6063 H6            1 RES     
   11118 H6         545.6690  -581.3621   182.1108 H6            1 RES     
   11119 H6         544.5651  -580.2661   183.0811 H6            1 RES     
   11120 H6         545.1345  -581.5329   185.1270 H6            1 RES     
   11121 H6         546.1980  -582.6339   184.1597 H6            1 RES     
   11122 H6         547.5982  -580.6861   183.4522 H6            1 RES     
   11123 H6         546.5287  -579.5849   184.4088 H6            1 RES     
   11124 H6         547.1716  -580.8030   186.5132 H6            1 RES     
   11125 H6         548.1828  -581.9344   185.5410 H6            1 RES     
   11126 H6         549.6638  -580.0742   184.8236 H6            1 RES     
   11127 H6         549.5969  -580.2691   186.6135 H6            1 RES     
   11128 H6         547.9686  -578.3613   186.7726 H6            1 RES     
   11129 H6         548.0832  -578.1154   184.9850 H6            1 RES     
   11130 H6         549.5494  -576.5410   186.1813 H6            1 RES     
   11131 H6         550.4214  -577.9086   186.9732 H6            1 RES     
   11132 H6         550.5245  -577.6821   185.1785 H6            1 RES     
   11133 C0         555.4798  -581.0270   177.5954 C0            1 RES     
   11134 C1         554.3858  -580.5749   178.5712 C1            1 RES     
   11135 C1         554.8788  -580.1345   179.7500 C1            1 RES     
   11136 S2         553.6758  -579.6215   180.7916 S2            1 RES     
   11137 C1         552.4428  -579.9726   179.6661 C1            1 RES     
   11138 C1         552.9950  -580.4863   178.4871 C1            1 RES     
   11139 C1         556.2915  -580.2498   179.7094 C1            1 RES     
   11140 C1         556.6824  -580.7847   178.5157 C1            1 RES     
   11141 C1         558.0676  -580.9588   178.4322 C1            1 RES     
   11142 C1         558.7139  -580.5407   179.6237 C1            1 RES     
   11143 S2         557.5623  -579.9318   180.7272 S2            1 RES     
   11144 H3         552.4183  -580.7785   177.6206 H3            1 RES     
   11145 H3         558.5571  -581.3742   177.5641 H3            1 RES     
   11146 N4         562.0040  -579.9095   181.3541 N4            1 RES     
   11147 C1         560.6900  -579.8287   180.9989 C1            1 RES     
   11148 C1         560.1589  -580.6341   179.9647 C1            1 RES     
   11149 C1         561.0399  -581.5324   179.3358 C1            1 RES     
   11150 N4         560.6840  -582.4076   178.3617 N4            1 RES     
   11151 S2         562.0980  -583.2097   178.0627 S2            1 RES     
   11152 N4         563.1720  -582.5167   179.1085 N4            1 RES     
   11153 C1         562.4017  -581.6020   179.7452 C1            1 RES     
   11154 C1         562.8679  -580.7725   180.7561 C1            1 RES     
   11155 H5         560.0648  -579.1190   181.5234 H5            1 RES     
   11156 C0         555.4092  -579.9491   176.4470 C0            1 RES     
   11157 C0         556.4242  -579.6893   175.2785 C0            1 RES     
   11158 C0         556.2251  -578.2272   174.7345 C0            1 RES     
   11159 C0         555.0120  -577.8875   173.8185 C0            1 RES     
   11160 C0         553.5853  -577.9516   174.4024 C0            1 RES     
   11161 C0         553.3413  -577.0963   175.6606 C0            1 RES     
   11162 C0         553.5312  -575.5933   175.4172 C0            1 RES     
   11163 C0         553.2208  -574.7951   176.6815 C0            1 RES     
   11164 C0         556.3714  -580.6566   174.0616 C0            1 RES     
   11165 C0         557.1837  -581.9403   174.2046 C0            1 RES     
   11166 C0         556.9532  -582.8642   172.9945 C0            1 RES     
   11167 C0         557.7107  -584.1943   173.1313 C0            1 RES     
   11168 C0         557.2762  -585.1821   172.0346 C0            1 RES     
   11169 C0         557.8414  -586.6026   172.2195 C0            1 RES     
   11170 C0         557.2789  -587.3047   173.4716 C0            1 RES     
   11171 C0         557.7594  -588.7490   173.5715 C0            1 RES     
   11172 H6         554.4018  -580.0304   176.0150 H6            1 RES     
   11173 H6         555.4570  -578.9969   177.0200 H6            1 RES     
   11174 H6         557.4499  -579.6767   175.7099 H6            1 RES     
   11175 H6         557.1192  -578.0104   174.1074 H6            1 RES     
   11176 H6         556.2734  -577.4973   175.5710 H6            1 RES     
   11177 H6         555.0396  -578.5348   172.9168 H6            1 RES     
   11178 H6         555.1707  -576.8501   173.4547 H6            1 RES     
   11179 H6         553.3088  -578.9990   174.6071 H6            1 RES     
   11180 H6         552.8769  -577.6186   173.6127 H6            1 RES     
   11181 H6         554.0027  -577.4219   176.4845 H6            1 RES     
   11182 H6         552.2918  -577.2695   175.9853 H6            1 RES     
   11183 H6         554.5787  -575.3803   175.1193 H6            1 RES     
   11184 H6         552.8488  -575.2597   174.6056 H6            1 RES     
   11185 H6         552.1710  -574.9682   177.0012 H6            1 RES     
   11186 H6         553.3569  -573.7114   176.4814 H6            1 RES     
   11187 H6         553.9056  -575.0940   177.5039 H6            1 RES     
   11188 H6         556.8296  -580.1593   173.1770 H6            1 RES     
   11189 H6         555.3060  -580.8624   173.8164 H6            1 RES     
   11190 H6         558.2634  -581.6963   174.3092 H6            1 RES     
   11191 H6         556.8620  -582.4521   175.1013 H6            1 RES     
   11192 H6         555.8625  -583.0816   172.9477 H6            1 RES     
   11193 H6         557.2533  -582.3609   172.0496 H6            1 RES     
   11194 H6         558.8088  -584.0270   173.0953 H6            1 RES     
   11195 H6         557.4781  -584.6224   174.1141 H6            1 RES     
   11196 H6         556.1666  -585.2624   172.0136 H6            1 RES     
   11197 H6         557.6077  -584.7814   171.0514 H6            1 RES     
   11198 H6         558.9513  -586.5710   172.2571 H6            1 RES     
   11199 H6         557.5383  -587.1975   171.3303 H6            1 RES     
   11200 H6         556.1672  -587.3088   173.4272 H6            1 RES     
   11201 H6         557.5994  -586.7814   174.3917 H6            1 RES     
   11202 H6         557.3281  -589.2192   174.4787 H6            1 RES     
   11203 H6         557.4322  -589.3283   172.6817 H6            1 RES     
   11204 H6         558.8684  -588.7816   173.6449 H6            1 RES     
   11205 C0         555.1154  -582.5071   177.1707 C0            1 RES     
   11206 C0         556.0837  -583.7337   177.2526 C0            1 RES     
   11207 C0         555.6990  -584.8041   176.1727 C0            1 RES     
   11208 C0         554.4522  -585.7068   176.3430 C0            1 RES     
   11209 C0         553.0614  -585.0522   176.2166 C0            1 RES     
   11210 C0         552.7990  -584.2818   174.9054 C0            1 RES     
   11211 C0         552.9317  -585.1401   173.6406 C0            1 RES     
   11212 C0         552.6054  -584.3171   172.3959 C0            1 RES     
   11213 C0         556.2002  -584.4668   178.6212 C0            1 RES     
   11214 C0         556.8761  -583.6700   179.7244 C0            1 RES     
   11215 C0         557.1261  -584.5040   180.9816 C0            1 RES     
   11216 C0         557.8536  -583.6495   182.0259 C0            1 RES     
   11217 C0         558.1334  -584.4450   183.3066 C0            1 RES     
   11218 C0         558.9211  -583.6354   184.3507 C0            1 RES     
   11219 C0         558.1597  -582.4007   184.8592 C0            1 RES     
   11220 C0         558.9532  -581.6739   185.9398 C0            1 RES     
   11221 H6         554.1760  -582.8239   177.6562 H6            1 RES     
   11222 H6         554.8367  -582.3817   176.1127 H6            1 RES     
   11223 H6         557.0970  -583.3864   176.9711 H6            1 RES     
   11224 H6         556.5572  -585.5098   176.1326 H6            1 RES     
   11225 H6         555.6246  -584.3321   175.1786 H6            1 RES     
   11226 H6         554.5116  -586.2532   177.3062 H6            1 RES     
   11227 H6         554.5143  -586.4829   175.5501 H6            1 RES     
   11228 H6         552.8807  -584.3798   177.0722 H6            1 RES     
   11229 H6         552.3036  -585.8612   176.3005 H6            1 RES     
   11230 H6         553.4811  -583.4183   174.8157 H6            1 RES     
   11231 H6         551.7628  -583.8806   174.9568 H6            1 RES     
   11232 H6         553.9705  -585.5189   173.5410 H6            1 RES     
   11233 H6         552.2343  -586.0033   173.6983 H6            1 RES     
   11234 H6         551.5630  -583.9353   172.4473 H6            1 RES     
   11235 H6         552.7084  -584.9496   171.4897 H6            1 RES     
   11236 H6         553.3022  -583.4555   172.3084 H6            1 RES     
   11237 H6         556.8369  -585.3657   178.4613 H6            1 RES     
   11238 H6         555.2000  -584.8061   178.9676 H6            1 RES     
   11239 H6         557.8643  -583.3351   179.3512 H6            1 RES     
   11240 H6         556.2275  -582.8219   179.9982 H6            1 RES     
   11241 H6         556.1575  -584.8635   181.3915 H6            1 RES     
   11242 H6         557.7589  -585.3835   180.7254 H6            1 RES     
   11243 H6         558.8196  -583.2950   181.6015 H6            1 RES     
   11244 H6         557.2174  -582.7700   182.2564 H6            1 RES     
   11245 H6         557.1751  -584.7931   183.7502 H6            1 RES     
   11246 H6         558.7403  -585.3392   183.0431 H6            1 RES     
   11247 H6         559.8966  -583.3223   183.9170 H6            1 RES     
   11248 H6         559.1245  -584.3070   185.2133 H6            1 RES     
   11249 H6         557.1810  -582.7151   185.2819 H6            1 RES     
   11250 H6         557.9816  -581.6848   184.0302 H6            1 RES     
   11251 H6         558.3805  -580.7886   186.2879 H6            1 RES     
   11252 H6         559.1311  -582.3462   186.8059 H6            1 RES     
   11253 H6         559.9293  -581.3304   185.5355 H6            1 RES     
   11254 C0         568.2730  -580.7705   180.7067 C0            1 RES     
   11255 C1         566.7955  -580.8336   181.1147 C1            1 RES     
   11256 C1         566.6210  -580.9628   182.4486 C1            1 RES     
   11257 S2         565.0059  -581.0039   182.8787 S2            1 RES     
   11258 C1         564.4899  -580.8361   181.2613 C1            1 RES     
   11259 C1         565.5950  -580.7484   180.4069 C1            1 RES     
   11260 C1         567.8998  -581.0150   183.0590 C1            1 RES     
   11261 C1         568.8753  -580.9432   182.1065 C1            1 RES     
   11262 C1         570.1623  -581.0291   182.6471 C1            1 RES     
   11263 C1         570.1217  -581.1803   184.0570 C1            1 RES     
   11264 S2         568.5024  -581.1627   184.5975 S2            1 RES     
   11265 H3         565.5285  -580.6302   179.3343 H3            1 RES     
   11266 H3         571.0572  -580.9957   182.0441 H3            1 RES     
   11267 N4         572.1114  -581.3249   187.2566 N4            1 RES     
   11268 C1         571.0950  -581.1222   186.3705 C1            1 RES     
   11269 C1         571.2616  -581.3848   184.9908 C1            1 RES     
   11270 C1         572.5117  -581.8812   184.5795 C1            1 RES     
   11271 N4         572.8224  -582.2292   183.3052 N4            1 RES     
   11272 S2         574.3753  -582.7769   183.4488 S2            1 RES     
   11273 N4         574.7049  -582.6074   185.0582 N4            1 RES     
   11274 C1         573.5442  -582.0974   185.5357 C1            1 RES     
   11275 C1         573.3252  -581.8042   186.8749 C1            1 RES     
   11276 H5         570.1575  -580.7409   186.7515 H5            1 RES     
   11277 C0         568.4426  -579.2917   180.1870 C0            1 RES     
   11278 C0         569.7636  -578.5085   179.8640 C0            1 RES     
   11279 C0         569.4732  -576.9634   179.9039 C0            1 RES     
   11280 C0         568.7215  -576.2740   178.7267 C0            1 RES     
   11281 C0         567.2425  -576.6278   178.4666 C0            1 RES     
   11282 C0         566.2918  -576.4398   179.6645 C0            1 RES     
   11283 C0         566.2038  -574.9852   180.1451 C0            1 RES     
   11284 C0         565.2061  -574.8523   181.2936 C0            1 RES     
   11285 C0         570.4641  -578.8219   178.5109 C0            1 RES     
   11286 C0         571.4182  -580.0127   178.5232 C0            1 RES     
   11287 C0         571.9502  -580.2945   177.1060 C0            1 RES     
   11288 C0         572.8700  -581.5250   177.0689 C0            1 RES     
   11289 C0         573.1908  -581.9197   175.6168 C0            1 RES     
   11290 C0         573.9438  -583.2570   175.4891 C0            1 RES     
   11291 C0         573.0876  -584.4620   175.9273 C0            1 RES     
   11292 C0         573.8082  -585.7840   175.6826 C0            1 RES     
   11293 H6         567.7653  -579.1919   179.3273 H6            1 RES     
   11294 H6         568.0147  -578.7008   181.0267 H6            1 RES     
   11295 H6         570.4736  -578.6690   180.7057 H6            1 RES     
   11296 H6         570.4690  -576.4662   179.9301 H6            1 RES     
   11297 H6         568.9868  -576.6898   180.8647 H6            1 RES     
   11298 H6         569.2823  -576.4428   177.7834 H6            1 RES     
   11299 H6         568.7680  -575.1809   178.9182 H6            1 RES     
   11300 H6         567.1629  -577.6606   178.0891 H6            1 RES     
   11301 H6         566.8796  -575.9900   177.6312 H6            1 RES     
   11302 H6         566.5973  -577.0875   180.5068 H6            1 RES     
   11303 H6         565.2782  -576.7649   179.3424 H6            1 RES     
   11304 H6         567.1948  -574.6367   180.5026 H6            1 RES     
   11305 H6         565.8729  -574.3363   179.3054 H6            1 RES     
   11306 H6         564.1943  -575.1752   180.9674 H6            1 RES     
   11307 H6         565.1524  -573.7925   181.6204 H6            1 RES     
   11308 H6         565.5263  -575.4751   182.1563 H6            1 RES     
   11309 H6         571.1218  -577.9681   178.2314 H6            1 RES     
   11310 H6         569.6863  -578.9189   177.7215 H6            1 RES     
   11311 H6         572.2590  -579.8178   179.2241 H6            1 RES     
   11312 H6         570.8781  -580.8819   178.8730 H6            1 RES     
   11313 H6         571.0688  -580.4920   176.4554 H6            1 RES     
   11314 H6         572.4939  -579.4116   176.7046 H6            1 RES     
   11315 H6         573.8048  -581.3345   177.6388 H6            1 RES     
   11316 H6         572.3514  -582.3565   177.5617 H6            1 RES     
   11317 H6         572.2494  -582.0072   175.0301 H6            1 RES     
   11318 H6         573.8027  -581.1103   175.1611 H6            1 RES     
   11319 H6         574.8899  -583.2205   176.0702 H6            1 RES     
   11320 H6         574.1978  -583.3923   174.4150 H6            1 RES     
   11321 H6         572.1361  -584.4710   175.3505 H6            1 RES     
   11322 H6         572.8526  -584.4042   177.0064 H6            1 RES     
   11323 H6         573.1580  -586.6234   176.0033 H6            1 RES     
   11324 H6         574.0379  -585.9057   174.6023 H6            1 RES     
   11325 H6         574.7537  -585.8210   176.2666 H6            1 RES     
   11326 C0         568.4867  -581.9065   179.6261 C0            1 RES     
   11327 C0         569.5894  -583.0151   179.6883 C0            1 RES     
   11328 C0         569.9662  -583.4900   178.2418 C0            1 RES     
   11329 C0         569.0192  -584.4003   177.4215 C0            1 RES     
   11330 C0         567.7022  -583.7912   176.8986 C0            1 RES     
   11331 C0         567.8465  -582.5173   176.0395 C0            1 RES     
   11332 C0         568.7034  -582.7077   174.7812 C0            1 RES     
   11333 C0         568.7511  -581.4185   173.9634 C0            1 RES     
   11334 C0         569.2844  -584.2849   180.5360 C0            1 RES     
   11335 C0         569.2171  -584.0580   182.0368 C0            1 RES     
   11336 C0         569.1000  -585.3644   182.8231 C0            1 RES     
   11337 C0         569.0891  -585.0581   184.3251 C0            1 RES     
   11338 C0         568.9789  -586.3402   185.1591 C0            1 RES     
   11339 C0         569.0314  -586.0724   186.6729 C0            1 RES     
   11340 C0         567.8569  -585.2189   187.1775 C0            1 RES     
   11341 C0         567.9186  -585.0414   188.6909 C0            1 RES     
   11342 H6         567.5352  -582.4299   179.4283 H6            1 RES     
   11343 H6         568.6626  -581.3227   178.7091 H6            1 RES     
   11344 H6         570.5116  -582.5550   180.0938 H6            1 RES     
   11345 H6         570.9007  -584.0814   178.3555 H6            1 RES     
   11346 H6         570.2111  -582.6213   177.6077 H6            1 RES     
   11347 H6         568.7920  -585.3217   177.9953 H6            1 RES     
   11348 H6         569.5945  -584.7324   176.5306 H6            1 RES     
   11349 H6         567.0213  -583.5827   177.7411 H6            1 RES     
   11350 H6         567.1968  -584.5678   176.2844 H6            1 RES     
   11351 H6         568.2753  -581.6913   176.6334 H6            1 RES     
   11352 H6         566.8240  -582.2066   175.7308 H6            1 RES     
   11353 H6         569.7433  -582.9767   175.0619 H6            1 RES     
   11354 H6         568.2748  -583.5194   174.1548 H6            1 RES     
   11355 H6         567.7280  -581.1252   173.6442 H6            1 RES     
   11356 H6         569.3762  -581.5703   173.0589 H6            1 RES     
   11357 H6         569.1923  -580.5948   174.5655 H6            1 RES     
   11358 H6         570.1221  -584.9996   180.3735 H6            1 RES     
   11359 H6         568.3442  -584.7670   180.1908 H6            1 RES     
   11360 H6         570.1593  -583.5680   182.3535 H6            1 RES     
   11361 H6         568.3326  -583.4404   182.2632 H6            1 RES     
   11362 H6         568.1652  -585.8924   182.5353 H6            1 RES     
   11363 H6         569.9707  -586.0182   182.5907 H6            1 RES     
   11364 H6         570.0290  -584.5280   184.5984 H6            1 RES     
   11365 H6         568.2264  -584.3927   184.5357 H6            1 RES     
   11366 H6         568.0362  -586.8729   184.9071 H6            1 RES     
   11367 H6         569.8335  -587.0044   184.9028 H6            1 RES     
   11368 H6         569.9933  -585.5749   186.9274 H6            1 RES     
   11369 H6         569.0025  -587.0567   187.1896 H6            1 RES     
   11370 H6         566.8971  -585.7127   186.9123 H6            1 RES     
   11371 H6         567.8830  -584.2098   186.7166 H6            1 RES     
   11372 H6         567.0600  -584.4225   189.0268 H6            1 RES     
   11373 H6         567.8661  -586.0283   189.1977 H6            1 RES     
   11374 H6         568.8613  -584.5299   188.9806 H6            1 RES     
   11375 C0         578.0678  -581.6568   189.4639 C0            1 RES     
   11376 C1         576.6187  -581.9312   189.0415 C1            1 RES     
   11377 C1         575.9307  -582.6536   189.9532 C1            1 RES     
   11378 S2         574.3468  -582.9216   189.4898 S2            1 RES     
   11379 C1         574.5428  -582.0523   188.0350 C1            1 RES     
   11380 C1         575.8502  -581.5625   187.9357 C1            1 RES     
   11381 C1         576.8012  -582.9469   191.0335 C1            1 RES     
   11382 C1         578.0407  -582.4300   190.7880 C1            1 RES     
   11383 C1         578.9561  -582.7216   191.8046 C1            1 RES     
   11384 C1         578.3579  -583.4949   192.8325 C1            1 RES     
   11385 S2         576.7096  -583.7606   192.4761 S2            1 RES     
   11386 H3         576.2193  -580.9737   187.1076 H3            1 RES     
   11387 H3         579.9860  -582.3987   191.7793 H3            1 RES     
   11388 N4         578.7722  -585.0252   196.2535 N4            1 RES     
   11389 C1         578.2122  -584.4670   195.1425 C1            1 RES     
   11390 C1         579.0059  -584.0735   194.0401 C1            1 RES     
   11391 C1         580.3907  -584.3015   194.1338 C1            1 RES     
   11392 N4         581.2859  -584.0285   193.1511 N4            1 RES     
   11393 S2         582.7117  -584.5463   193.8074 S2            1 RES     
   11394 N4         582.2762  -585.1155   195.2953 N4            1 RES     
   11395 C1         580.9382  -584.9031   195.3023 C1            1 RES     
   11396 C1         580.1086  -585.2523   196.3593 C1            1 RES     
   11397 H5         577.1408  -584.3207   195.1327 H5            1 RES     
   11398 C0         578.0851  -580.0993   189.7086 C0            1 RES     
   11399 C0         579.1902  -579.2248   190.3990 C0            1 RES     
   11400 C0         578.5523  -577.8718   190.8846 C0            1 RES     
   11401 C0         578.2315  -576.7420   189.8616 C0            1 RES     
   11402 C0         577.1339  -576.9735   188.8023 C0            1 RES     
   11403 C0         575.7501  -577.3693   189.3525 C0            1 RES     
   11404 C0         575.1234  -576.2917   190.2472 C0            1 RES     
   11405 C0         573.7326  -576.7153   190.7144 C0            1 RES     
   11406 C0         580.4511  -578.8764   189.5574 C0            1 RES     
   11407 C0         581.5625  -579.9219   189.5719 C0            1 RES     
   11408 C0         582.6959  -579.5201   188.6101 C0            1 RES     
   11409 C0         583.8077  -580.5795   188.5539 C0            1 RES     
   11410 C0         584.7984  -580.2675   187.4187 C0            1 RES     
   11411 C0         585.8282  -581.3849   187.1691 C0            1 RES     
   11412 C0         585.1806  -582.6771   186.6324 C0            1 RES     
   11413 C0         586.2283  -583.7286   186.2812 C0            1 RES     
   11414 H6         577.8346  -579.6370   188.7434 H6            1 RES     
   11415 H6         577.2144  -579.9619   190.3870 H6            1 RES     
   11416 H6         579.4913  -579.7322   191.3425 H6            1 RES     
   11417 H6         579.2930  -577.4175   191.5808 H6            1 RES     
   11418 H6         577.6544  -578.0735   191.5073 H6            1 RES     
   11419 H6         579.1621  -576.4530   189.3292 H6            1 RES     
   11420 H6         577.9310  -575.8529   190.4557 H6            1 RES     
   11421 H6         577.4701  -577.7255   188.0696 H6            1 RES     
   11422 H6         577.0199  -576.0354   188.2165 H6            1 RES     
   11423 H6         575.8133  -578.3207   189.9119 H6            1 RES     
   11424 H6         575.0785  -577.5367   188.4819 H6            1 RES     
   11425 H6         575.7546  -576.1200   191.1436 H6            1 RES     
   11426 H6         575.0366  -575.3410   189.6777 H6            1 RES     
   11427 H6         573.0639  -576.8788   189.8423 H6            1 RES     
   11428 H6         573.2950  -575.9194   191.3530 H6            1 RES     
   11429 H6         573.7941  -577.6534   191.3066 H6            1 RES     
   11430 H6         580.9414  -577.9736   189.9868 H6            1 RES     
   11431 H6         580.1298  -578.6236   188.5228 H6            1 RES     
   11432 H6         581.9532  -580.0458   190.6054 H6            1 RES     
   11433 H6         581.1487  -580.8674   189.2488 H6            1 RES     
   11434 H6         582.2491  -579.4222   187.5953 H6            1 RES     
   11435 H6         583.1315  -578.5390   188.8998 H6            1 RES     
   11436 H6         584.3372  -580.6460   189.5287 H6            1 RES     
   11437 H6         583.3430  -581.5555   188.3680 H6            1 RES     
   11438 H6         584.2457  -580.1016   186.4672 H6            1 RES     
   11439 H6         585.3340  -579.3257   187.6705 H6            1 RES     
   11440 H6         586.3994  -581.5936   188.0989 H6            1 RES     
   11441 H6         586.5383  -581.0140   186.3980 H6            1 RES     
   11442 H6         584.5963  -582.4459   185.7141 H6            1 RES     
   11443 H6         584.5034  -583.1188   187.3869 H6            1 RES     
   11444 H6         585.7236  -584.6369   185.8933 H6            1 RES     
   11445 H6         586.9165  -583.3434   185.4986 H6            1 RES     
   11446 H6         586.8151  -584.0041   187.1845 H6            1 RES     
   11447 C0         578.9832  -582.1761   188.2824 C0            1 RES     
   11448 C0         580.1837  -583.1674   188.4398 C0            1 RES     
   11449 C0         581.2399  -582.9282   187.3053 C0            1 RES     
   11450 C0         580.9772  -583.3905   185.8508 C0            1 RES     
   11451 C0         579.9038  -582.6411   185.0353 C0            1 RES     
   11452 C0         580.0919  -581.1135   184.9225 C0            1 RES     
   11453 C0         581.4200  -580.6946   184.2786 C0            1 RES     
   11454 C0         581.5025  -579.1743   184.1571 C0            1 RES     
   11455 C0         579.8592  -584.6900   188.4672 C0            1 RES     
   11456 C0         579.1093  -585.1678   189.6992 C0            1 RES     
   11457 C0         578.9837  -586.6909   189.7556 C0            1 RES     
   11458 C0         578.2637  -587.0972   191.0465 C0            1 RES     
   11459 C0         578.1181  -588.6200   191.1530 C0            1 RES     
   11460 C0         577.4575  -589.0646   192.4691 C0            1 RES     
   11461 C0         576.0143  -588.5586   192.6231 C0            1 RES     
   11462 C0         575.3836  -589.0833   193.9085 C0            1 RES     
   11463 H6         578.3604  -582.5751   187.4630 H6            1 RES     
   11464 H6         579.3875  -581.2368   187.8735 H6            1 RES     
   11465 H6         580.7079  -582.9196   189.3835 H6            1 RES     
   11466 H6         582.1487  -583.4856   187.6208 H6            1 RES     
   11467 H6         581.5166  -581.8613   187.2618 H6            1 RES     
   11468 H6         580.7541  -584.4767   185.8355 H6            1 RES     
   11469 H6         581.9370  -583.2706   185.3037 H6            1 RES     
   11470 H6         578.9017  -582.8517   185.4456 H6            1 RES     
   11471 H6         579.9077  -583.0673   184.0086 H6            1 RES     
   11472 H6         580.0180  -580.6358   185.9151 H6            1 RES     
   11473 H6         579.2558  -580.7202   184.3032 H6            1 RES     
   11474 H6         582.2733  -581.0377   184.9006 H6            1 RES     
   11475 H6         581.5044  -581.1449   183.2662 H6            1 RES     
   11476 H6         580.6743  -578.7918   183.5226 H6            1 RES     
   11477 H6         582.4686  -578.8864   183.6930 H6            1 RES     
   11478 H6         581.4364  -578.7020   185.1613 H6            1 RES     
   11479 H6         580.8299  -585.2346   188.4715 H6            1 RES     
   11480 H6         579.2989  -584.9852   187.5537 H6            1 RES     
   11481 H6         579.6816  -584.8526   190.5943 H6            1 RES     
   11482 H6         578.0937  -584.7397   189.6849 H6            1 RES     
   11483 H6         578.4147  -587.0528   188.8720 H6            1 RES     
   11484 H6         579.9984  -587.1489   189.7445 H6            1 RES     
   11485 H6         578.8428  -586.7267   191.9219 H6            1 RES     
   11486 H6         577.2624  -586.6189   191.0488 H6            1 RES     
   11487 H6         577.5280  -589.0026   190.2919 H6            1 RES     
   11488 H6         579.1314  -589.0768   191.1114 H6            1 RES     
   11489 H6         578.0716  -588.7142   193.3281 H6            1 RES     
   11490 H6         577.4469  -590.1765   192.4811 H6            1 RES     
   11491 H6         575.4058  -588.9009   191.7582 H6            1 RES     
   11492 H6         575.9930  -587.4498   192.6631 H6            1 RES     
   11493 H6         574.3437  -588.7029   193.9932 H6            1 RES     
   11494 H6         575.3571  -590.1936   193.9002 H6            1 RES     
   11495 H6         575.9626  -588.7367   194.7910 H6            1 RES     
   11496 C0         583.1177  -586.1833   200.7519 C0            1 RES     
   11497 C1         582.0963  -586.2701   199.6105 C1            1 RES     
   11498 C1         581.2799  -587.3422   199.7129 C1            1 RES     
   11499 S2         580.1565  -587.4077   198.4763 S2            1 RES     
   11500 C1         580.7388  -585.9703   197.7655 C1            1 RES     
   11501 C1         581.8068  -585.4588   198.5117 C1            1 RES     
   11502 C1         581.6515  -588.0723   200.8703 C1            1 RES     
   11503 C1         582.7157  -587.4721   201.4795 C1            1 RES     
   11504 C1         583.1531  -588.1709   202.6093 C1            1 RES     
   11505 C1         582.3779  -589.3388   202.8269 C1            1 RES     
   11506 S2         581.1523  -589.4523   201.6438 S2            1 RES     
   11507 H3         582.3409  -584.5509   198.2685 H3            1 RES     
   11508 H3         583.9869  -587.8481   203.2145 H3            1 RES     
   11509 N4         581.6512  -592.2409   205.1219 N4            1 RES     
   11510 C1         581.5010  -591.2535   204.1934 C1            1 RES     
   11511 C1         582.5689  -590.3860   203.8661 C1            1 RES     
   11512 C1         583.7932  -590.6001   204.5247 C1            1 RES     
   11513 N4         584.9275  -589.8919   204.2942 N4            1 RES     
   11514 S2         586.0177  -590.6178   205.3025 S2            1 RES     
   11515 N4         585.1407  -591.8080   206.0385 N4            1 RES     
   11516 C1         583.9183  -591.6524   205.4756 C1            1 RES     
   11517 C1         582.8278  -592.4607   205.7669 C1            1 RES     
   11518 H5         580.5343  -591.1432   203.7214 H5            1 RES     
   11519 C0         582.6588  -584.9049   201.5524 C0            1 RES     
   11520 C0         583.1233  -584.4121   202.9682 C0            1 RES     
   11521 C0         582.0382  -583.4399   203.5604 C0            1 RES     
   11522 C0         581.9237  -581.9773   203.0375 C0            1 RES     
   11523 C0         581.4696  -581.7298   201.5839 C0            1 RES     
   11524 C0         580.1211  -582.3630   201.1903 C0            1 RES     
   11525 C0         578.9377  -581.8211   202.0028 C0            1 RES     
   11526 C0         577.6249  -582.4418   201.5301 C0            1 RES     
   11527 C0         584.4994  -583.6921   203.0551 C0            1 RES     
   11528 C0         585.7126  -584.6055   203.2037 C0            1 RES     
   11529 C0         587.0157  -583.7865   203.1550 C0            1 RES     
   11530 C0         588.2627  -584.6802   203.2431 C0            1 RES     
   11531 C0         589.5360  -583.8661   202.9543 C0            1 RES     
   11532 C0         590.8073  -584.7261   202.8285 C0            1 RES     
   11533 C0         590.7765  -585.6502   201.5947 C0            1 RES     
   11534 C0         592.0908  -586.4051   201.4232 C0            1 RES     
   11535 H6         582.7399  -584.0620   200.8518 H6            1 RES     
   11536 H6         581.5774  -585.1090   201.7143 H6            1 RES     
   11537 H6         583.1064  -585.2843   203.6590 H6            1 RES     
   11538 H6         582.2818  -583.3328   204.6415 H6            1 RES     
   11539 H6         581.0373  -583.9218   203.5348 H6            1 RES     
   11540 H6         582.8941  -581.4576   203.1835 H6            1 RES     
   11541 H6         581.1977  -581.4600   203.7000 H6            1 RES     
   11542 H6         582.2531  -582.0612   200.8827 H6            1 RES     
   11543 H6         581.3957  -580.6310   201.4305 H6            1 RES     
   11544 H6         580.1649  -583.4628   201.2932 H6            1 RES     
   11545 H6         579.9438  -582.1339   200.1165 H6            1 RES     
   11546 H6         579.0677  -582.0589   203.0789 H6            1 RES     
   11547 H6         578.8776  -580.7179   201.8803 H6            1 RES     
   11548 H6         577.4498  -582.2085   200.4580 H6            1 RES     
   11549 H6         576.7823  -582.0309   202.1251 H6            1 RES     
   11550 H6         577.6501  -583.5446   201.6630 H6            1 RES     
   11551 H6         584.5308  -583.0702   203.9781 H6            1 RES     
   11552 H6         584.5979  -583.0063   202.1848 H6            1 RES     
   11553 H6         585.6446  -585.1744   204.1565 H6            1 RES     
   11554 H6         585.7131  -585.3118   202.3848 H6            1 RES     
   11555 H6         587.0329  -583.2505   202.1796 H6            1 RES     
   11556 H6         587.0401  -583.0327   203.9720 H6            1 RES     
   11557 H6         588.3272  -585.1683   204.2394 H6            1 RES     
   11558 H6         588.1676  -585.4771   202.4952 H6            1 RES     
   11559 H6         589.4177  -583.3006   202.0033 H6            1 RES     
   11560 H6         589.6731  -583.1281   203.7751 H6            1 RES     
   11561 H6         590.9612  -585.3195   203.7550 H6            1 RES     
   11562 H6         591.6669  -584.0304   202.7116 H6            1 RES     
   11563 H6         590.6010  -585.0423   200.6795 H6            1 RES     
   11564 H6         589.9695  -586.4008   201.6872 H6            1 RES     
   11565 H6         592.0304  -587.0511   200.5236 H6            1 RES     
   11566 H6         592.9327  -585.6920   201.2923 H6            1 RES     
   11567 H6         592.2855  -587.0459   202.3108 H6            1 RES     
   11568 C0         584.5425  -586.0911   200.0700 C0            1 RES     
   11569 C0         585.7602  -587.0189   200.3949 C0            1 RES     
   11570 C0         587.1077  -586.2684   200.1105 C0            1 RES     
   11571 C0         587.6056  -586.0289   198.6638 C0            1 RES     
   11572 C0         586.8359  -585.0165   197.7912 C0            1 RES     
   11573 C0         586.6850  -583.5991   198.3828 C0            1 RES     
   11574 C0         588.0191  -582.9042   198.6847 C0            1 RES     
   11575 C0         587.7814  -581.4917   199.2154 C0            1 RES     
   11576 C0         585.8269  -588.3962   199.6719 C0            1 RES     
   11577 C0         584.7623  -589.3965   200.0897 C0            1 RES     
   11578 C0         584.9906  -590.7828   199.4859 C0            1 RES     
   11579 C0         583.9101  -591.7453   199.9919 C0            1 RES     
   11580 C0         584.0996  -593.1546   199.4179 C0            1 RES     
   11581 C0         583.0694  -594.1612   199.9579 C0            1 RES     
   11582 C0         581.6230  -593.8126   199.5722 C0            1 RES     
   11583 C0         580.6509  -594.8761   200.0717 C0            1 RES     
   11584 H6         584.4411  -586.0906   198.9708 H6            1 RES     
   11585 H6         584.8461  -585.0596   200.3077 H6            1 RES     
   11586 H6         585.7586  -587.2127   201.4854 H6            1 RES     
   11587 H6         587.9002  -586.8873   200.5848 H6            1 RES     
   11588 H6         587.1143  -585.2912   200.6220 H6            1 RES     
   11589 H6         587.6754  -586.9956   198.1247 H6            1 RES     
   11590 H6         588.6479  -585.6527   198.7473 H6            1 RES     
   11591 H6         585.8363  -585.4126   197.5448 H6            1 RES     
   11592 H6         587.3765  -584.9321   196.8235 H6            1 RES     
   11593 H6         586.0855  -583.6237   199.3096 H6            1 RES     
   11594 H6         586.1240  -582.9874   197.6422 H6            1 RES     
   11595 H6         588.5820  -583.4718   199.4550 H6            1 RES     
   11596 H6         588.6297  -582.8458   197.7580 H6            1 RES     
   11597 H6         587.2364  -580.8826   198.4625 H6            1 RES     
   11598 H6         588.7541  -581.0031   199.4318 H6            1 RES     
   11599 H6         587.1852  -581.5263   200.1529 H6            1 RES     
   11600 H6         586.8026  -588.8616   199.9372 H6            1 RES     
   11601 H6         585.7954  -588.2591   198.5692 H6            1 RES     
   11602 H6         584.8073  -589.5072   201.1914 H6            1 RES     
   11603 H6         583.7793  -589.0315   199.7498 H6            1 RES     
   11604 H6         584.9546  -590.7190   198.3768 H6            1 RES     
   11605 H6         585.9907  -591.1631   199.7939 H6            1 RES     
   11606 H6         583.9563  -591.7977   201.1028 H6            1 RES     
   11607 H6         582.9207  -591.3427   199.6915 H6            1 RES     
   11608 H6         584.0406  -593.1198   198.3082 H6            1 RES     
   11609 H6         585.1112  -593.5199   199.7017 H6            1 RES     
   11610 H6         583.1580  -594.2231   201.0651 H6            1 RES     
   11611 H6         583.3194  -595.1583   199.5336 H6            1 RES     
   11612 H6         581.5399  -593.7406   198.4661 H6            1 RES     
   11613 H6         581.3238  -592.8426   200.0205 H6            1 RES     
   11614 H6         579.6160  -594.5990   199.7793 H6            1 RES     
   11615 H6         580.8952  -595.8629   199.6244 H6            1 RES     
   11616 H6         580.6997  -594.9529   201.1789 H6            1 RES     
   11617 C0         583.8131  -595.2084   210.3162 C0            1 RES     
   11618 C1         583.4260  -594.7930   208.8910 C1            1 RES     
   11619 C1         582.9240  -595.8138   208.1614 C1            1 RES     
   11620 S2         582.4832  -595.3387   206.6202 S2            1 RES     
   11621 C1         582.9521  -593.7223   206.8995 C1            1 RES     
   11622 C1         583.4467  -593.5794   208.2010 C1            1 RES     
   11623 C1         582.9308  -596.9797   208.9684 C1            1 RES     
   11624 C1         583.4593  -596.6957   210.1948 C1            1 RES     
   11625 C1         583.5279  -597.8197   211.0243 C1            1 RES     
   11626 C1         583.0359  -598.9771   210.3681 C1            1 RES     
   11627 S2         582.4944  -598.5713   208.8008 S2            1 RES     
   11628 H3         583.8008  -592.6477   208.6197 H3            1 RES     
   11629 H3         583.9226  -597.7865   212.0287 H3            1 RES     
   11630 N4         582.1164  -602.6190   210.6968 N4            1 RES     
   11631 C1         582.1446  -601.3223   210.2760 C1            1 RES     
   11632 C1         583.0104  -600.3764   210.8726 C1            1 RES     
   11633 C1         583.8513  -600.8372   211.9017 C1            1 RES     
   11634 N4         584.7718  -600.0756   212.5452 N4            1 RES     
   11635 S2         585.4687  -601.1539   213.5861 S2            1 RES     
   11636 N4         584.6730  -602.5680   213.2786 N4            1 RES     
   11637 C1         583.8070  -602.2025   212.3029 C1            1 RES     
   11638 C1         582.9227  -603.0799   211.6898 C1            1 RES     
   11639 H5         581.4743  -601.0325   209.4784 H5            1 RES     
   11640 C0         582.7684  -594.4410   211.2137 C0            1 RES     
   11641 C0         582.4561  -594.6312   212.7399 C0            1 RES     
   11642 C0         581.0256  -594.0570   213.0517 C0            1 RES     
   11643 C0         580.7999  -592.5190   213.1495 C0            1 RES     
   11644 C0         580.9614  -591.6514   211.8840 C0            1 RES     
   11645 C0         580.1010  -592.0688   210.6758 C0            1 RES     
   11646 C0         578.5933  -591.9800   210.9468 C0            1 RES     
   11647 C0         577.7947  -592.3497   209.6988 C0            1 RES     
   11648 C0         583.4502  -593.9971   213.7543 C0            1 RES     
   11649 C0         584.6642  -594.8510   214.1086 C0            1 RES     
   11650 C0         585.6286  -594.0690   215.0193 C0            1 RES     
   11651 C0         586.8931  -594.8773   215.3500 C0            1 RES     
   11652 C0         587.9346  -593.9917   216.0561 C0            1 RES     
   11653 C0         589.3031  -594.6726   216.2439 C0            1 RES     
   11654 C0         590.0196  -594.9394   214.9050 C0            1 RES     
   11655 C0         591.4202  -595.5049   215.1184 C0            1 RES     
   11656 H6         582.9363  -593.3708   211.0284 H6            1 RES     
   11657 H6         581.8035  -594.7209   210.7365 H6            1 RES     
   11658 H6         582.3553  -595.7217   212.9374 H6            1 RES     
   11659 H6         580.7539  -594.4448   214.0594 H6            1 RES     
   11660 H6         580.2766  -594.4979   212.3594 H6            1 RES     
   11661 H6         581.4622  -592.0995   213.9359 H6            1 RES     
   11662 H6         579.7614  -592.3740   213.5157 H6            1 RES     
   11663 H6         582.0225  -591.6120   211.5871 H6            1 RES     
   11664 H6         580.7009  -590.6040   212.1512 H6            1 RES     
   11665 H6         580.3570  -593.0950   210.3540 H6            1 RES     
   11666 H6         580.3475  -591.3830   209.8357 H6            1 RES     
   11667 H6         578.3066  -592.6757   211.7624 H6            1 RES     
   11668 H6         578.3306  -590.9423   211.2467 H6            1 RES     
   11669 H6         578.0413  -591.6608   208.8627 H6            1 RES     
   11670 H6         576.7083  -592.2716   209.9143 H6            1 RES     
   11671 H6         578.0224  -593.3925   209.3903 H6            1 RES     
   11672 H6         582.9380  -593.8593   214.7333 H6            1 RES     
   11673 H6         583.7428  -592.9898   213.3838 H6            1 RES     
   11674 H6         584.3355  -595.7907   214.6037 H6            1 RES     
   11675 H6         585.1801  -595.1105   213.1942 H6            1 RES     
   11676 H6         585.9304  -593.1496   214.4691 H6            1 RES     
   11677 H6         585.1239  -593.7658   215.9625 H6            1 RES     
   11678 H6         586.6425  -595.7615   215.9748 H6            1 RES     
   11679 H6         587.3170  -595.2517   214.4101 H6            1 RES     
   11680 H6         588.1006  -593.0602   215.4706 H6            1 RES     
   11681 H6         587.5305  -593.7017   217.0510 H6            1 RES     
   11682 H6         589.1853  -595.6171   216.8167 H6            1 RES     
   11683 H6         589.9384  -593.9799   216.8381 H6            1 RES     
   11684 H6         590.1103  -593.9875   214.3361 H6            1 RES     
   11685 H6         589.4538  -595.6688   214.2961 H6            1 RES     
   11686 H6         591.9029  -595.6755   214.1344 H6            1 RES     
   11687 H6         592.0418  -594.7907   215.6997 H6            1 RES     
   11688 H6         591.3657  -596.4732   215.6623 H6            1 RES     
   11689 C0         585.3255  -594.7853   210.5093 C0            1 RES     
   11690 C0         586.4718  -595.7317   210.9984 C0            1 RES     
   11691 C0         587.5915  -594.9032   211.7195 C0            1 RES     
   11692 C0         588.5838  -594.0241   210.9189 C0            1 RES     
   11693 C0         588.0411  -592.7443   210.2506 C0            1 RES     
   11694 C0         587.3212  -591.7515   211.1875 C0            1 RES     
   11695 C0         588.1935  -591.2379   212.3405 C0            1 RES     
   11696 C0         587.4247  -590.2240   213.1855 C0            1 RES     
   11697 C0         587.1645  -596.6312   209.9330 C0            1 RES     
   11698 C0         586.2948  -597.7364   209.3577 C0            1 RES     
   11699 C0         587.0801  -598.6942   208.4608 C0            1 RES     
   11700 C0         586.1500  -599.8059   207.9617 C0            1 RES     
   11701 C0         586.8943  -600.7985   207.0605 C0            1 RES     
   11702 C0         586.0043  -601.9637   206.5954 C0            1 RES     
   11703 C0         584.8215  -601.5115   205.7242 C0            1 RES     
   11704 C0         584.0129  -602.7078   205.2337 C0            1 RES     
   11705 H6         585.7034  -594.2901   209.5980 H6            1 RES     
   11706 H6         585.2446  -593.9661   211.2408 H6            1 RES     
   11707 H6         586.0535  -596.3976   211.7783 H6            1 RES     
   11708 H6         588.2296  -595.6514   212.2382 H6            1 RES     
   11709 H6         587.1478  -594.2630   212.5005 H6            1 RES     
   11710 H6         589.1033  -594.6406   210.1575 H6            1 RES     
   11711 H6         589.3695  -593.7026   211.6360 H6            1 RES     
   11712 H6         587.3666  -593.0090   209.4188 H6            1 RES     
   11713 H6         588.9042  -592.2192   209.7868 H6            1 RES     
   11714 H6         586.4099  -592.2062   211.6136 H6            1 RES     
   11715 H6         587.0002  -590.8840   210.5697 H6            1 RES     
   11716 H6         588.4931  -592.0796   212.9996 H6            1 RES     
   11717 H6         589.1065  -590.7530   211.9329 H6            1 RES     
   11718 H6         587.1234  -589.3529   212.5649 H6            1 RES     
   11719 H6         588.0665  -589.8640   214.0164 H6            1 RES     
   11720 H6         586.5140  -590.6923   213.6178 H6            1 RES     
   11721 H6         588.0148  -597.1439   210.4359 H6            1 RES     
   11722 H6         587.5725  -596.0111   209.1056 H6            1 RES     
   11723 H6         585.8927  -598.3322   210.2011 H6            1 RES     
   11724 H6         585.4935  -597.2796   208.7541 H6            1 RES     
   11725 H6         587.5044  -598.1366   207.5980 H6            1 RES     
   11726 H6         587.9134  -599.1497   209.0420 H6            1 RES     
   11727 H6         585.7312  -600.3539   208.8354 H6            1 RES     
   11728 H6         585.3175  -599.3336   207.4003 H6            1 RES     
   11729 H6         587.3056  -600.2671   206.1748 H6            1 RES     
   11730 H6         587.7444  -601.2295   207.6339 H6            1 RES     
   11731 H6         585.6263  -602.5176   207.4831 H6            1 RES     
   11732 H6         586.6397  -602.6552   205.9998 H6            1 RES     
   11733 H6         585.2013  -600.9490   204.8440 H6            1 RES     
   11734 H6         584.1392  -600.8562   206.3043 H6            1 RES     
   11735 H6         583.1671  -602.3522   204.6082 H6            1 RES     
   11736 H6         584.6508  -603.3799   204.6214 H6            1 RES     
   11737 H6         583.6037  -603.2759   206.0964 H6            1 RES     
   11738 C0         582.5052  -607.5645   214.6783 C0            1 RES     
   11739 C1         582.6733  -606.5584   213.5324 C1            1 RES     
   11740 C1         582.7872  -607.1502   212.3226 C1            1 RES     
   11741 S2         582.9435  -606.0397   211.0826 S2            1 RES     
   11742 C1         582.8503  -604.7141   212.1525 C1            1 RES     
   11743 C1         582.6959  -605.1639   213.4688 C1            1 RES     
   11744 C1         582.7276  -608.5545   212.5097 C1            1 RES     
   11745 C1         582.6012  -608.8438   213.8380 C1            1 RES     
   11746 C1         582.5761  -610.2195   214.0888 C1            1 RES     
   11747 C1         582.6999  -610.9660   212.8890 C1            1 RES     
   11748 S2         582.7958  -609.9078   211.5527 S2            1 RES     
   11749 H3         582.6061  -604.5144   214.3284 H3            1 RES     
   11750 H3         582.4866  -610.6351   215.0813 H3            1 RES     
   11751 N4         582.6227  -614.3828   211.2963 N4            1 RES     
   11752 C1         582.5178  -613.0357   211.4797 C1            1 RES     
   11753 C1         582.7961  -612.4423   212.7330 C1            1 RES     
   11754 C1         583.2033  -613.2993   213.7714 C1            1 RES     
   11755 N4         583.5533  -612.8902   215.0170 N4            1 RES     
   11756 S2         583.9765  -614.3065   215.7566 S2            1 RES     
   11757 N4         583.7480  -615.4464   214.5838 N4            1 RES     
   11758 C1         583.3188  -614.6991   213.5384 C1            1 RES     
   11759 C1         583.0151  -615.2244   212.2896 C1            1 RES     
   11760 H5         582.2019  -612.4319   210.6400 H5            1 RES     
   11761 C0         581.0291  -607.3100   215.1703 C0            1 RES     
   11762 C0         580.1535  -608.1768   216.1423 C0            1 RES     
   11763 C0         578.6349  -607.8385   215.9130 C0            1 RES     
   11764 C0         578.0306  -606.5165   216.4727 C0            1 RES     
   11765 C0         578.5028  -605.1670   215.8928 C0            1 RES     
   11766 C0         578.3632  -605.0125   214.3661 C0            1 RES     
   11767 C0         576.9099  -605.0903   213.8801 C0            1 RES     
   11768 C0         576.8299  -604.8737   212.3706 C0            1 RES     
   11769 C0         580.4406  -608.0475   217.6655 C0            1 RES     
   11770 C0         581.5538  -608.9413   218.2044 C0            1 RES     
   11771 C0         581.8238  -608.6339   219.6889 C0            1 RES     
   11772 C0         582.9802  -609.4752   220.2514 C0            1 RES     
   11773 C0         583.3799  -608.9812   221.6526 C0            1 RES     
   11774 C0         584.6575  -609.6419   222.2027 C0            1 RES     
   11775 C0         585.9154  -609.2580   221.3979 C0            1 RES     
   11776 C0         587.1828  -609.8267   222.0280 C0            1 RES     
   11777 H6         581.0001  -606.2681   215.5190 H6            1 RES     
   11778 H6         580.4552  -607.3657   214.2191 H6            1 RES     
   11779 H6         580.2408  -609.2407   215.8280 H6            1 RES     
   11780 H6         578.0619  -608.6461   216.4219 H6            1 RES     
   11781 H6         578.3792  -607.9356   214.8359 H6            1 RES     
   11782 H6         578.1757  -606.4830   217.5730 H6            1 RES     
   11783 H6         576.9334  -606.5765   216.3110 H6            1 RES     
   11784 H6         579.5465  -604.9734   216.1908 H6            1 RES     
   11785 H6         577.9128  -604.3599   216.3795 H6            1 RES     
   11786 H6         578.9674  -605.7761   213.8427 H6            1 RES     
   11787 H6         578.7723  -604.0155   214.0912 H6            1 RES     
   11788 H6         576.4785  -606.0860   214.1124 H6            1 RES     
   11789 H6         576.3064  -604.3067   214.3875 H6            1 RES     
   11790 H6         577.2366  -603.8759   212.1001 H6            1 RES     
   11791 H6         575.7707  -604.9264   212.0417 H6            1 RES     
   11792 H6         577.4076  -605.6589   211.8374 H6            1 RES     
   11793 H6         579.5448  -608.3790   218.2376 H6            1 RES     
   11794 H6         580.6140  -606.9751   217.9053 H6            1 RES     
   11795 H6         581.2798  -610.0106   218.0709 H6            1 RES     
   11796 H6         582.4544  -608.7475   217.6379 H6            1 RES     
   11797 H6         582.1025  -607.5584   219.7583 H6            1 RES     
   11798 H6         580.9104  -608.8016   220.3002 H6            1 RES     
   11799 H6         582.7062  -610.5518   220.2789 H6            1 RES     
   11800 H6         583.8386  -609.3744   219.5758 H6            1 RES     
   11801 H6         583.5520  -607.8820   221.6330 H6            1 RES     
   11802 H6         582.5355  -609.1816   222.3484 H6            1 RES     
   11803 H6         584.5359  -610.7458   222.2307 H6            1 RES     
   11804 H6         584.7956  -609.2784   223.2445 H6            1 RES     
   11805 H6         586.0099  -608.1499   221.3626 H6            1 RES     
   11806 H6         585.8529  -609.6459   220.3642 H6            1 RES     
   11807 H6         588.0628  -609.5229   221.4251 H6            1 RES     
   11808 H6         587.3093  -609.4386   223.0614 H6            1 RES     
   11809 H6         587.1344  -610.9373   222.0551 H6            1 RES     
   11810 C0         583.6440  -607.2400   215.7279 C0            1 RES     
   11811 C0         584.6627  -608.2789   216.3040 C0            1 RES     
   11812 C0         585.1379  -607.8407   217.7330 C0            1 RES     
   11813 C0         586.1357  -606.6721   217.9261 C0            1 RES     
   11814 C0         585.6412  -605.2413   217.6313 C0            1 RES     
   11815 C0         584.3785  -604.7962   218.3990 C0            1 RES     
   11816 C0         584.5289  -604.8397   219.9252 C0            1 RES     
   11817 C0         583.2576  -604.3353   220.6052 C0            1 RES     
   11818 C0         585.9340  -608.5833   215.4582 C0            1 RES     
   11819 C0         585.6811  -609.3284   214.1584 C0            1 RES     
   11820 C0         586.9756  -609.7590   213.4675 C0            1 RES     
   11821 C0         586.6392  -610.5457   212.1955 C0            1 RES     
   11822 C0         587.9080  -611.0062   211.4678 C0            1 RES     
   11823 C0         587.6048  -611.8552   210.2214 C0            1 RES     
   11824 C0         586.8339  -611.0850   209.1374 C0            1 RES     
   11825 C0         586.6200  -611.9483   207.8987 C0            1 RES     
   11826 H6         584.2434  -606.3778   215.3876 H6            1 RES     
   11827 H6         583.0680  -606.8423   216.5780 H6            1 RES     
   11828 H6         584.1244  -609.2348   216.4558 H6            1 RES     
   11829 H6         585.6529  -608.7278   218.1617 H6            1 RES     
   11830 H6         584.2665  -607.6332   218.3768 H6            1 RES     
   11831 H6         587.0594  -606.8657   217.3438 H6            1 RES     
   11832 H6         586.4413  -606.6918   218.9944 H6            1 RES     
   11833 H6         585.4679  -605.1165   216.5491 H6            1 RES     
   11834 H6         586.4673  -604.5436   217.8894 H6            1 RES     
   11835 H6         583.5095  -605.4151   218.1150 H6            1 RES     
   11836 H6         584.1541  -603.7507   218.0926 H6            1 RES     
   11837 H6         584.7109  -605.8813   220.2635 H6            1 RES     
   11838 H6         585.3844  -604.2021   220.2361 H6            1 RES     
   11839 H6         583.0508  -603.2849   220.3076 H6            1 RES     
   11840 H6         583.3800  -604.3753   221.7075 H6            1 RES     
   11841 H6         582.3897  -604.9692   220.3212 H6            1 RES     
   11842 H6         586.5853  -609.2484   216.0685 H6            1 RES     
   11843 H6         586.4944  -607.6470   215.2465 H6            1 RES     
   11844 H6         585.1133  -610.2503   214.3950 H6            1 RES     
   11845 H6         585.1288  -608.6665   213.4715 H6            1 RES     
   11846 H6         587.5801  -608.8619   213.2118 H6            1 RES     
   11847 H6         587.5652  -610.4088   214.1528 H6            1 RES     
   11848 H6         586.0326  -611.4389   212.4661 H6            1 RES     
   11849 H6         586.0380  -609.8898   211.5325 H6            1 RES     
   11850 H6         588.5171  -610.1224   211.1778 H6            1 RES     
   11851 H6         588.5096  -611.6304   212.1647 H6            1 RES     
   11852 H6         587.0294  -612.7591   210.5205 H6            1 RES     
   11853 H6         588.5772  -612.1879   209.7966 H6            1 RES     
   11854 H6         587.4057  -610.1768   208.8484 H6            1 RES     
   11855 H6         585.8358  -610.7786   209.5134 H6            1 RES     
   11856 H6         586.0621  -611.3677   207.1340 H6            1 RES     
   11857 H6         587.5971  -612.2561   207.4694 H6            1 RES     
   11858 H6         586.0314  -612.8543   208.1576 H6            1 RES     
   11859 C0         582.4475  -620.5838   212.7026 C0            1 RES     
   11860 C1         582.8417  -619.1648   212.2731 C1            1 RES     
   11861 C1         583.5955  -619.1428   211.1515 C1            1 RES     
   11862 S2         583.9945  -617.5883   210.6828 S2            1 RES     
   11863 C1         583.1439  -616.8924   211.9875 C1            1 RES     
   11864 C1         582.5570  -617.8922   212.7717 C1            1 RES     
   11865 C1         583.7978  -620.4809   210.7281 C1            1 RES     
   11866 C1         583.1922  -621.3424   211.5971 C1            1 RES     
   11867 C1         583.3907  -622.6830   211.2515 C1            1 RES     
   11868 C1         584.1857  -622.8032   210.0828 C1            1 RES     
   11869 S2         584.5852  -621.2532   209.4891 S2            1 RES     
   11870 H3         581.9592  -617.7038   213.6526 H3            1 RES     
   11871 H3         582.9900  -623.5043   211.8263 H3            1 RES     
   11872 N4         585.6066  -625.1313   207.4793 N4            1 RES     
   11873 C1         585.1169  -624.0155   208.0913 C1            1 RES     
   11874 C1         584.6869  -624.0468   209.4383 C1            1 RES     
   11875 C1         584.8055  -625.2712   210.1204 C1            1 RES     
   11876 N4         584.4852  -625.4617   211.4253 N4            1 RES     
   11877 S2         584.8775  -627.0492   211.6654 S2            1 RES     
   11878 N4         585.4468  -627.5405   210.1950 N4            1 RES     
   11879 C1         585.3381  -626.4113   209.4544 C1            1 RES     
   11880 C1         585.7277  -626.3218   208.1249 C1            1 RES     
   11881 H5         585.0539  -623.1047   207.5118 H5            1 RES     
   11882 C0         580.8885  -620.6131   212.4692 C0            1 RES     
   11883 C0         579.9169  -621.8456   212.4720 C0            1 RES     
   11884 C0         578.6071  -621.4748   211.6844 C0            1 RES     
   11885 C0         577.5274  -620.5631   212.3392 C0            1 RES     
   11886 C0         577.8653  -619.0868   212.6339 C0            1 RES     
   11887 C0         578.3548  -618.2618   211.4281 C0            1 RES     
   11888 C0         577.3099  -618.1446   210.3105 C0            1 RES     
   11889 C0         577.8294  -617.2707   209.1710 C0            1 RES     
   11890 C0         579.4903  -622.4125   213.8562 C0            1 RES     
   11891 C0         580.4465  -623.4277   214.4754 C0            1 RES     
   11892 C0         579.9791  -623.8187   215.8895 C0            1 RES     
   11893 C0         580.9505  -624.7968   216.5686 C0            1 RES     
   11894 C0         580.5874  -624.9808   218.0524 C0            1 RES     
   11895 C0         581.6271  -625.7895   218.8502 C0            1 RES     
   11896 C0         582.9764  -625.0546   218.9782 C0            1 RES     
   11897 C0         583.9514  -625.8177   219.8693 C0            1 RES     
   11898 H6         580.4675  -619.8425   213.1301 H6            1 RES     
   11899 H6         580.8042  -620.2458   211.4226 H6            1 RES     
   11900 H6         580.3795  -622.6501   211.8579 H6            1 RES     
   11901 H6         578.0824  -622.4381   211.4938 H6            1 RES     
   11902 H6         578.8641  -621.0803   210.6779 H6            1 RES     
   11903 H6         577.1789  -621.0274   213.2857 H6            1 RES     
   11904 H6         576.6516  -620.5685   211.6560 H6            1 RES     
   11905 H6         578.6045  -619.0251   213.4495 H6            1 RES     
   11906 H6         576.9514  -618.6007   213.0399 H6            1 RES     
   11907 H6         579.2864  -618.6922   211.0168 H6            1 RES     
   11908 H6         578.5919  -617.2392   211.7955 H6            1 RES     
   11909 H6         577.0711  -619.1473   209.8994 H6            1 RES     
   11910 H6         576.3810  -617.6891   210.7172 H6            1 RES     
   11911 H6         578.0624  -616.2494   209.5411 H6            1 RES     
   11912 H6         577.0562  -617.1931   208.3780 H6            1 RES     
   11913 H6         578.7472  -617.7165   208.7310 H6            1 RES     
   11914 H6         578.5436  -622.9872   213.7418 H6            1 RES     
   11915 H6         579.2851  -621.5608   214.5418 H6            1 RES     
   11916 H6         580.5179  -624.3269   213.8254 H6            1 RES     
   11917 H6         581.4277  -622.9781   214.5435 H6            1 RES     
   11918 H6         579.9375  -622.8848   216.4939 H6            1 RES     
   11919 H6         578.9614  -624.2655   215.8605 H6            1 RES     
   11920 H6         580.9553  -625.7755   216.0421 H6            1 RES     
   11921 H6         581.9633  -624.3819   216.4947 H6            1 RES     
   11922 H6         580.4848  -623.9880   218.5443 H6            1 RES     
   11923 H6         579.6019  -625.4935   218.1105 H6            1 RES     
   11924 H6         581.7713  -626.7893   218.3876 H6            1 RES     
   11925 H6         581.2191  -625.9334   219.8745 H6            1 RES     
   11926 H6         582.8106  -624.0485   219.4235 H6            1 RES     
   11927 H6         583.4529  -624.9345   217.9875 H6            1 RES     
   11928 H6         584.9039  -625.2540   219.9411 H6            1 RES     
   11929 H6         583.5309  -625.9360   220.8909 H6            1 RES     
   11930 H6         584.1616  -626.8212   219.4390 H6            1 RES     
   11931 C0         582.9197  -620.7432   214.2044 C0            1 RES     
   11932 C0         583.8120  -621.9067   214.7511 C0            1 RES     
   11933 C0         583.5162  -622.1514   216.2718 C0            1 RES     
   11934 C0         584.0283  -621.1740   217.3585 C0            1 RES     
   11935 C0         583.3813  -619.7762   217.4384 C0            1 RES     
   11936 C0         581.8464  -619.7553   217.5984 C0            1 RES     
   11937 C0         581.3403  -620.4808   218.8518 C0            1 RES     
   11938 C0         579.8210  -620.3676   218.9617 C0            1 RES     
   11939 C0         585.3541  -621.7667   214.5882 C0            1 RES     
   11940 C0         585.8620  -621.8491   213.1586 C0            1 RES     
   11941 C0         587.3887  -621.8910   213.0799 C0            1 RES     
   11942 C0         587.8218  -622.0249   211.6155 C0            1 RES     
   11943 C0         589.3487  -622.0775   211.4838 C0            1 RES     
   11944 C0         589.8148  -622.2778   210.0317 C0            1 RES     
   11945 C0         589.4184  -621.1185   209.1035 C0            1 RES     
   11946 C0         589.9626  -621.3330   207.6952 C0            1 RES     
   11947 H6         583.3828  -619.8068   214.5610 H6            1 RES     
   11948 H6         581.9610  -620.7861   214.7446 H6            1 RES     
   11949 H6         583.5045  -622.8400   214.2401 H6            1 RES     
   11950 H6         583.9951  -623.1244   216.5165 H6            1 RES     
   11951 H6         582.4324  -622.2773   216.4332 H6            1 RES     
   11952 H6         585.1285  -621.0622   217.2762 H6            1 RES     
   11953 H6         583.8464  -621.6677   218.3374 H6            1 RES     
   11954 H6         583.6597  -619.1795   216.5533 H6            1 RES     
   11955 H6         583.8277  -619.2520   218.3111 H6            1 RES     
   11956 H6         581.3549  -620.1986   216.7147 H6            1 RES     
   11957 H6         581.5320  -618.6897   217.6519 H6            1 RES     
   11958 H6         581.6032  -621.5584   218.8043 H6            1 RES     
   11959 H6         581.8041  -620.0334   219.7572 H6            1 RES     
   11960 H6         579.5170  -619.3011   219.0326 H6            1 RES     
   11961 H6         579.4694  -620.8990   219.8704 H6            1 RES     
   11962 H6         579.3340  -620.8241   218.0728 H6            1 RES     
   11963 H6         585.8220  -622.6208   215.1271 H6            1 RES     
   11964 H6         585.7110  -620.8233   215.0553 H6            1 RES     
   11965 H6         585.4847  -622.7909   212.7129 H6            1 RES     
   11966 H6         585.5139  -620.9609   212.6064 H6            1 RES     
   11967 H6         587.8121  -620.9617   213.5188 H6            1 RES     
   11968 H6         587.7673  -622.7669   213.6536 H6            1 RES     
   11969 H6         587.3893  -622.9576   211.1887 H6            1 RES     
   11970 H6         587.4221  -621.1540   211.0560 H6            1 RES     
   11971 H6         589.7938  -621.1445   211.8930 H6            1 RES     
   11972 H6         589.7268  -622.9354   212.0823 H6            1 RES     
   11973 H6         589.3999  -623.2321   209.6383 H6            1 RES     
   11974 H6         590.9237  -622.3601   210.0429 H6            1 RES     
   11975 H6         589.8248  -620.1649   209.5047 H6            1 RES     
   11976 H6         588.3139  -621.0381   209.0314 H6            1 RES     
   11977 H6         589.6618  -620.4822   207.0480 H6            1 RES     
   11978 H6         591.0716  -621.3910   207.7148 H6            1 RES     
   11979 H6         589.5538  -622.2713   207.2631 H6            1 RES     
   11980 C0         586.3304  -631.3002   206.1075 C0            1 RES     
   11981 C1         586.5198  -629.8317   206.5091 C1            1 RES     
   11982 C1         587.6493  -629.2877   206.0042 C1            1 RES     
   11983 S2         587.8274  -627.6806   206.4295 S2            1 RES     
   11984 C1         586.3649  -627.6695   207.3077 C1            1 RES     
   11985 C1         585.7569  -628.9290   207.2522 C1            1 RES     
   11986 C1         588.3238  -630.2847   205.2547 C1            1 RES     
   11987 C1         587.6306  -631.4596   205.3100 C1            1 RES     
   11988 C1         588.2694  -632.4941   204.6188 C1            1 RES     
   11989 C1         589.4887  -632.0547   204.0422 C1            1 RES     
   11990 S2         589.7214  -630.3951   204.3680 S2            1 RES     
   11991 H3         584.8159  -629.1730   207.7252 H3            1 RES     
   11992 H3         587.8704  -633.4955   204.5584 H3            1 RES     
   11993 N4         592.3887  -632.9207   201.7934 N4            1 RES     
   11994 C1         591.4358  -632.2138   202.4654 C1            1 RES     
   11995 C1         590.4957  -632.8606   203.3010 C1            1 RES     
   11996 C1         590.6007  -634.2581   203.4218 C1            1 RES     
   11997 N4         589.8123  -635.0253   204.2163 N4            1 RES     
   11998 S2         590.4304  -636.5404   203.9834 S2            1 RES     
   11999 N4         591.6688  -636.3005   202.9174 N4            1 RES     
   12000 C1         591.6198  -634.9613   202.7189 C1            1 RES     
   12001 C1         592.5034  -634.2714   201.8998 C1            1 RES     
   12002 H5         591.4103  -631.1411   202.3313 H5            1 RES     
   12003 C0         585.0744  -631.2563   205.1555 C0            1 RES     
   12004 C0         584.5173  -632.3786   204.2105 C0            1 RES     
   12005 C0         583.6193  -631.7218   203.0990 C0            1 RES     
   12006 C0         582.1812  -631.2296   203.4392 C0            1 RES     
   12007 C0         582.0005  -630.0389   204.4036 C0            1 RES     
   12008 C0         582.7439  -628.7469   204.0135 C0            1 RES     
   12009 C0         582.2777  -628.1609   202.6742 C0            1 RES     
   12010 C0         583.0077  -626.8546   202.3697 C0            1 RES     
   12011 C0         583.6917  -633.5198   204.8705 C0            1 RES     
   12012 C0         584.5054  -634.6832   205.4297 C0            1 RES     
   12013 C0         583.5897  -635.6819   206.1611 C0            1 RES     
   12014 C0         584.3826  -636.8390   206.7889 C0            1 RES     
   12015 C0         583.4791  -637.6823   207.7053 C0            1 RES     
   12016 C0         584.2409  -638.7403   208.5249 C0            1 RES     
   12017 C0         585.1908  -638.1122   209.5643 C0            1 RES     
   12018 C0         585.8456  -639.1733   210.4430 C0            1 RES     
   12019 H6         584.2428  -630.8777   205.7662 H6            1 RES     
   12020 H6         585.3578  -630.4575   204.4351 H6            1 RES     
   12021 H6         585.3734  -632.8077   203.6436 H6            1 RES     
   12022 H6         583.4707  -632.5066   202.3233 H6            1 RES     
   12023 H6         584.1773  -630.9091   202.5864 H6            1 RES     
   12024 H6         581.5854  -632.0796   203.8333 H6            1 RES     
   12025 H6         581.7075  -630.9455   202.4756 H6            1 RES     
   12026 H6         582.2854  -630.3358   205.4264 H6            1 RES     
   12027 H6         580.9141  -629.8100   204.4651 H6            1 RES     
   12028 H6         583.8347  -628.9234   203.9778 H6            1 RES     
   12029 H6         582.5521  -627.9959   204.8110 H6            1 RES     
   12030 H6         582.4819  -628.8744   201.8492 H6            1 RES     
   12031 H6         581.1853  -627.9599   202.7173 H6            1 RES     
   12032 H6         582.8114  -626.1060   203.1668 H6            1 RES     
   12033 H6         582.6504  -626.4444   201.4017 H6            1 RES     
   12034 H6         584.1022  -627.0321   202.2988 H6            1 RES     
   12035 H6         583.0497  -634.0021   204.0991 H6            1 RES     
   12036 H6         583.0189  -633.0751   205.6367 H6            1 RES     
   12037 H6         585.0576  -635.1894   204.6080 H6            1 RES     
   12038 H6         585.2269  -634.2907   206.1332 H6            1 RES     
   12039 H6         583.0748  -635.1235   206.9747 H6            1 RES     
   12040 H6         582.8191  -636.0904   205.4715 H6            1 RES     
   12041 H6         584.8429  -637.4733   206.0011 H6            1 RES     
   12042 H6         585.2001  -636.4124   207.3831 H6            1 RES     
   12043 H6         582.9447  -637.0218   208.4240 H6            1 RES     
   12044 H6         582.7153  -638.1882   207.0745 H6            1 RES     
   12045 H6         584.8009  -639.4193   207.8469 H6            1 RES     
   12046 H6         583.4838  -639.3412   209.0746 H6            1 RES     
   12047 H6         584.6177  -637.4202   210.2207 H6            1 RES     
   12048 H6         585.9991  -637.5462   209.0650 H6            1 RES     
   12049 H6         586.5133  -638.6814   211.1795 H6            1 RES     
   12050 H6         585.0726  -639.7503   210.9944 H6            1 RES     
   12051 H6         586.4504  -639.8686   209.8209 H6            1 RES     
   12052 C0         586.1432  -632.1106   207.4536 C0            1 RES     
   12053 C0         586.9672  -633.3748   207.8678 C0            1 RES     
   12054 C0         586.1213  -634.2874   208.8226 C0            1 RES     
   12055 C0         585.8750  -633.8957   210.3005 C0            1 RES     
   12056 C0         584.9436  -632.7003   210.5873 C0            1 RES     
   12057 C0         583.5298  -632.7890   209.9749 C0            1 RES     
   12058 C0         582.7278  -634.0143   210.4325 C0            1 RES     
   12059 C0         581.3270  -633.9977   209.8239 C0            1 RES     
   12060 C0         588.3503  -633.1412   208.5435 C0            1 RES     
   12061 C0         589.4206  -632.5565   207.6372 C0            1 RES     
   12062 C0         590.7977  -632.5234   208.3013 C0            1 RES     
   12063 C0         591.8296  -631.9708   207.3115 C0            1 RES     
   12064 C0         593.2320  -631.9233   207.9301 C0            1 RES     
   12065 C0         594.3033  -631.4346   206.9404 C0            1 RES     
   12066 C0         594.0755  -629.9903   206.4664 C0            1 RES     
   12067 C0         595.1999  -629.5323   205.5436 C0            1 RES     
   12068 H6         586.1738  -631.4264   208.3193 H6            1 RES     
   12069 H6         585.0864  -632.4150   207.3948 H6            1 RES     
   12070 H6         587.1373  -633.9830   206.9579 H6            1 RES     
   12071 H6         586.6671  -635.2547   208.8723 H6            1 RES     
   12072 H6         585.1358  -634.4975   208.3738 H6            1 RES     
   12073 H6         586.8446  -633.7336   210.8137 H6            1 RES     
   12074 H6         585.4178  -634.7827   210.7897 H6            1 RES     
   12075 H6         585.4208  -631.7617   210.2584 H6            1 RES     
   12076 H6         584.8384  -632.6173   211.6909 H6            1 RES     
   12077 H6         583.5808  -632.7959   208.8721 H6            1 RES     
   12078 H6         582.9791  -631.8702   210.2748 H6            1 RES     
   12079 H6         583.2339  -634.9476   210.1078 H6            1 RES     
   12080 H6         582.6423  -634.0142   211.5405 H6            1 RES     
   12081 H6         580.7779  -633.0858   210.1428 H6            1 RES     
   12082 H6         580.7603  -634.8904   210.1611 H6            1 RES     
   12083 H6         581.3874  -634.0139   208.7141 H6            1 RES     
   12084 H6         588.7333  -634.1357   208.8644 H6            1 RES     
   12085 H6         588.2395  -632.5031   209.4469 H6            1 RES     
   12086 H6         589.5040  -633.2034   206.7413 H6            1 RES     
   12087 H6         589.1397  -631.5229   207.3772 H6            1 RES     
   12088 H6         590.7605  -631.8837   209.2095 H6            1 RES     
   12089 H6         591.0931  -633.5552   208.5978 H6            1 RES     
   12090 H6         591.8546  -632.6193   206.4071 H6            1 RES     
   12091 H6         591.5110  -630.9504   207.0140 H6            1 RES     
   12092 H6         593.2254  -631.2662   208.8269 H6            1 RES     
   12093 H6         593.5122  -632.9503   208.2527 H6            1 RES     
   12094 H6         594.3347  -632.1171   206.0624 H6            1 RES     
   12095 H6         595.2869  -631.4877   207.4564 H6            1 RES     
   12096 H6         594.0336  -629.3122   207.3461 H6            1 RES     
   12097 H6         593.1221  -629.9112   205.9041 H6            1 RES     
   12098 H6         595.0097  -628.4879   205.2176 H6            1 RES     
   12099 H6         596.1743  -629.5675   206.0756 H6            1 RES     
   12100 H6         595.2492  -630.1828   204.6444 H6            1 RES     
   12101 C0         595.0697  -637.7842   198.6919 C0            1 RES     
   12102 C1         594.7157  -636.6522   199.6648 C1            1 RES     
   12103 C1         595.7875  -635.9130   200.0273 C1            1 RES     
   12104 S2         595.3806  -634.6684   201.0669 S2            1 RES     
   12105 C1         593.7274  -635.0890   201.0492 C1            1 RES     
   12106 C1         593.5191  -636.2007   200.2248 C1            1 RES     
   12107 C1         596.9320  -636.4477   199.3831 C1            1 RES     
   12108 C1         596.5821  -637.5361   198.6368 C1            1 RES     
   12109 C1         597.6795  -638.1313   198.0064 C1            1 RES     
   12110 C1         598.8851  -637.4509   198.3161 C1            1 RES     
   12111 S2         598.5556  -636.1132   199.3243 S2            1 RES     
   12112 H3         592.5541  -636.6537   200.0444 H3            1 RES     
   12113 H3         597.5947  -639.0060   197.3792 H3            1 RES     
   12114 N4         602.5793  -637.1400   197.6279 N4            1 RES     
   12115 C1         601.2935  -636.8354   197.9643 C1            1 RES     
   12116 C1         600.2712  -637.8113   197.9135 C1            1 RES     
   12117 C1         600.6438  -639.1096   197.5208 C1            1 RES     
   12118 N4         599.8000  -640.1709   197.4651 N4            1 RES     
   12119 S2         600.7990  -641.4025   196.9991 S2            1 RES     
   12120 N4         602.2764  -640.6783   196.8572 N4            1 RES     
   12121 C1         601.9996  -639.3955   197.1938 C1            1 RES     
   12122 C1         602.9554  -638.3898   197.2466 C1            1 RES     
   12123 H5         601.0732  -635.8188   198.2601 H5            1 RES     
   12124 C0         594.3662  -637.3433   197.3515 C0            1 RES     
   12125 C0         594.5474  -637.9294   195.9070 C0            1 RES     
   12126 C0         594.0786  -636.8616   194.8518 C0            1 RES     
   12127 C0         592.5609  -636.6095   194.6094 C0            1 RES     
   12128 C0         591.7105  -635.9880   195.7369 C0            1 RES     
   12129 C0         592.2186  -634.6426   196.2902 C0            1 RES     
   12130 C0         592.2405  -633.5252   195.2389 C0            1 RES     
   12131 C0         592.6971  -632.2060   195.8582 C0            1 RES     
   12132 C0         593.8172  -639.2641   195.5837 C0            1 RES     
   12133 C0         594.5672  -640.5358   195.9695 C0            1 RES     
   12134 C0         593.6940  -641.7779   195.7132 C0            1 RES     
   12135 C0         594.3952  -643.0753   196.1452 C0            1 RES     
   12136 C0         593.4172  -644.2623   196.0999 C0            1 RES     
   12137 C0         593.9864  -645.5589   196.7053 C0            1 RES     
   12138 C0         594.2256  -645.4471   198.2243 C0            1 RES     
   12139 C0         594.6768  -646.7756   198.8229 C0            1 RES     
   12140 H6         593.2904  -637.3009   197.5724 H6            1 RES     
   12141 H6         594.7297  -636.2988   197.2321 H6            1 RES     
   12142 H6         595.6380  -638.0360   195.7131 H6            1 RES     
   12143 H6         594.4647  -637.2140   193.8688 H6            1 RES     
   12144 H6         594.5906  -635.8924   195.0342 H6            1 RES     
   12145 H6         592.0750  -637.5592   194.3014 H6            1 RES     
   12146 H6         592.4886  -635.9312   193.7329 H6            1 RES     
   12147 H6         591.5957  -636.7087   196.5632 H6            1 RES     
   12148 H6         590.6809  -635.8365   195.3454 H6            1 RES     
   12149 H6         593.2286  -634.7590   196.7243 H6            1 RES     
   12150 H6         591.5338  -634.3380   197.1119 H6            1 RES     
   12151 H6         592.9388  -633.7836   194.4161 H6            1 RES     
   12152 H6         591.2201  -633.3904   194.8192 H6            1 RES     
   12153 H6         592.0092  -631.9035   196.6765 H6            1 RES     
   12154 H6         592.6984  -631.4108   195.0833 H6            1 RES     
   12155 H6         593.7256  -632.3073   196.2661 H6            1 RES     
   12156 H6         593.6985  -639.3600   194.4807 H6            1 RES     
   12157 H6         592.7984  -639.2295   196.0291 H6            1 RES     
   12158 H6         595.5187  -640.6030   195.3982 H6            1 RES     
   12159 H6         594.8056  -640.4875   197.0233 H6            1 RES     
   12160 H6         592.7660  -641.6597   196.3164 H6            1 RES     
   12161 H6         593.4107  -641.8479   194.6404 H6            1 RES     
   12162 H6         595.2826  -643.2742   195.5065 H6            1 RES     
   12163 H6         594.7558  -642.9451   197.1729 H6            1 RES     
   12164 H6         592.4883  -644.0106   196.6584 H6            1 RES     
   12165 H6         593.1381  -644.4455   195.0389 H6            1 RES     
   12166 H6         594.9248  -645.8449   196.1840 H6            1 RES     
   12167 H6         593.2343  -646.3605   196.5369 H6            1 RES     
   12168 H6         593.2818  -645.1401   198.7273 H6            1 RES     
   12169 H6         595.0092  -644.6983   198.4437 H6            1 RES     
   12170 H6         594.8305  -646.6549   199.9147 H6            1 RES     
   12171 H6         593.9046  -647.5571   198.6574 H6            1 RES     
   12172 H6         595.6346  -647.1006   198.3609 H6            1 RES     
   12173 C0         594.5273  -639.1198   199.3444 C0            1 RES     
   12174 C0         595.3718  -640.4155   199.5826 C0            1 RES     
   12175 C0         594.4444  -641.6802   199.5687 C0            1 RES     
   12176 C0         593.5086  -642.0049   200.7592 C0            1 RES     
   12177 C0         592.2890  -641.0900   200.9922 C0            1 RES     
   12178 C0         591.3349  -640.9245   199.7905 C0            1 RES     
   12179 C0         590.7313  -642.2422   199.2875 C0            1 RES     
   12180 C0         589.7618  -641.9841   198.1357 C0            1 RES     
   12181 C0         596.2378  -640.4811   200.8749 C0            1 RES     
   12182 C0         597.4186  -639.5256   200.9095 C0            1 RES     
   12183 C0         598.3319  -639.7650   202.1125 C0            1 RES     
   12184 C0         599.5224  -638.8011   202.0506 C0            1 RES     
   12185 C0         600.4736  -639.0064   203.2357 C0            1 RES     
   12186 C0         601.7136  -638.0986   203.1684 C0            1 RES     
   12187 C0         601.3725  -636.6018   203.2425 C0            1 RES     
   12188 C0         602.6377  -635.7505   203.2416 C0            1 RES     
   12189 H6         594.0239  -638.9005   200.3020 H6            1 RES     
   12190 H6         593.7014  -639.3888   198.6674 H6            1 RES     
   12191 H6         596.0513  -640.5424   198.7171 H6            1 RES     
   12192 H6         595.1300  -642.5527   199.5002 H6            1 RES     
   12193 H6         593.8238  -641.6871   198.6568 H6            1 RES     
   12194 H6         594.0993  -642.0704   201.6955 H6            1 RES     
   12195 H6         593.1123  -643.0274   200.5789 H6            1 RES     
   12196 H6         592.6224  -640.0935   201.3279 H6            1 RES     
   12197 H6         591.7089  -641.5175   201.8387 H6            1 RES     
   12198 H6         591.8494  -640.4307   198.9476 H6            1 RES     
   12199 H6         590.5081  -640.2534   200.1121 H6            1 RES     
   12200 H6         591.5331  -642.9159   198.9191 H6            1 RES     
   12201 H6         590.1861  -642.7451   200.1151 H6            1 RES     
   12202 H6         588.9300  -641.3278   198.4703 H6            1 RES     
   12203 H6         589.3358  -642.9455   197.7807 H6            1 RES     
   12204 H6         590.2897  -641.4954   197.2882 H6            1 RES     
   12205 H6         596.6725  -641.5043   200.9295 H6            1 RES     
   12206 H6         595.6058  -640.3232   201.7756 H6            1 RES     
   12207 H6         598.0256  -639.6953   199.9980 H6            1 RES     
   12208 H6         597.0379  -638.4928   200.9673 H6            1 RES     
   12209 H6         597.7618  -639.6061   203.0533 H6            1 RES     
   12210 H6         598.7094  -640.8122   202.0910 H6            1 RES     
   12211 H6         600.0823  -638.9697   201.1034 H6            1 RES     
   12212 H6         599.1277  -637.7640   202.0556 H6            1 RES     
   12213 H6         599.9309  -638.8263   204.1892 H6            1 RES     
   12214 H6         600.8255  -640.0616   203.2291 H6            1 RES     
   12215 H6         602.2760  -638.3095   202.2319 H6            1 RES     
   12216 H6         602.3665  -638.3570   204.0307 H6            1 RES     
   12217 H6         600.8012  -636.3959   204.1735 H6            1 RES     
   12218 H6         600.7595  -636.2987   202.3685 H6            1 RES     
   12219 H6         602.3617  -634.6762   203.2959 H6            1 RES     
   12220 H6         603.2715  -636.0002   204.1189 H6            1 RES     
   12221 H6         603.2172  -635.9227   202.3095 H6            1 RES     
   12222 C0         607.3943  -640.0128   194.6238 C0            1 RES     
   12223 C1         606.4029  -639.4515   195.6512 C1            1 RES     
   12224 C1         607.0096  -638.9319   196.7413 C1            1 RES     
   12225 S2         605.9170  -638.3014   197.8386 S2            1 RES     
   12226 C1         604.5801  -638.7062   196.8592 C1            1 RES     
   12227 C1         605.0124  -639.3295   195.6829 C1            1 RES     
   12228 C1         608.4101  -639.0911   196.5862 C1            1 RES     
   12229 C1         608.6800  -639.7320   195.4113 C1            1 RES     
   12230 C1         610.0479  -639.9527   195.2208 C1            1 RES     
   12231 C1         610.8080  -639.4585   196.3119 C1            1 RES     
   12232 S2         609.7741  -638.7292   197.4581 S2            1 RES     
   12233 H3         604.3536  -639.6738   194.8978 H3            1 RES     
   12234 H3         610.4479  -640.4509   194.3506 H3            1 RES     
   12235 N4         614.2536  -638.7858   197.6873 N4            1 RES     
   12236 C1         612.9150  -638.6956   197.4437 C1            1 RES     
   12237 C1         612.2754  -639.5662   196.5309 C1            1 RES     
   12238 C1         613.0763  -640.5377   195.9037 C1            1 RES     
   12239 N4         612.6150  -641.4781   195.0409 N4            1 RES     
   12240 S2         613.9784  -642.3426   194.6862 S2            1 RES     
   12241 N4         615.1572  -641.5990   195.5721 N4            1 RES     
   12242 C1         614.4676  -640.6137   196.1959 C1            1 RES     
   12243 C1         615.0411  -639.7191   197.0894 C1            1 RES     
   12244 H5         612.3554  -637.9280   197.9604 H5            1 RES     
   12245 C0         607.2439  -639.0295   193.4005 C0            1 RES     
   12246 C0         608.1548  -638.8948   192.1297 C0            1 RES     
   12247 C0         607.9395  -637.4763   191.4856 C0            1 RES     
   12248 C0         606.6564  -637.1765   190.6550 C0            1 RES     
   12249 C0         605.2871  -637.1516   191.3656 C0            1 RES     
   12250 C0         605.1764  -636.1907   192.5649 C0            1 RES     
   12251 C0         605.3763  -634.7184   192.1816 C0            1 RES     
   12252 C0         605.1987  -633.8119   193.3977 C0            1 RES     
   12253 C0         607.9714  -639.9554   191.0067 C0            1 RES     
   12254 C0         608.7651  -641.2465   191.1838 C0            1 RES     
   12255 C0         608.4063  -642.2581   190.0798 C0            1 RES     
   12256 C0         609.1438  -643.5942   190.2594 C0            1 RES     
   12257 C0         608.5908  -644.6544   189.2911 C0            1 RES     
   12258 C0         609.1392  -646.0712   189.5429 C0            1 RES     
   12259 C0         608.6767  -646.6530   190.8938 C0            1 RES     
   12260 C0         609.1325  -648.0979   191.0707 C0            1 RES     
   12261 H6         606.2002  -639.1161   193.0672 H6            1 RES     
   12262 H6         607.3640  -638.0360   193.8860 H6            1 RES     
   12263 H6         609.2153  -638.8773   192.4665 H6            1 RES     
   12264 H6         608.7779  -637.3371   190.7664 H6            1 RES     
   12265 H6         608.0789  -636.6829   192.2510 H6            1 RES     
   12266 H6         606.5885  -637.8951   189.8113 H6            1 RES     
   12267 H6         606.8042  -636.1770   190.1936 H6            1 RES     
   12268 H6         605.0074  -638.1705   191.6802 H6            1 RES     
   12269 H6         604.5178  -636.8630   190.6165 H6            1 RES     
   12270 H6         605.9021  -636.4677   193.3515 H6            1 RES     
   12271 H6         604.1568  -636.3063   192.9941 H6            1 RES     
   12272 H6         606.3971  -634.5609   191.7760 H6            1 RES     
   12273 H6         604.6309  -634.4317   191.4084 H6            1 RES     
   12274 H6         604.1784  -633.9278   193.8218 H6            1 RES     
   12275 H6         605.3398  -632.7524   193.0970 H6            1 RES     
   12276 H6         605.9481  -634.0631   194.1785 H6            1 RES     
   12277 H6         608.3587  -639.5448   190.0470 H6            1 RES     
   12278 H6         606.8840  -640.1492   190.8743 H6            1 RES     
   12279 H6         609.8549  -641.0264   191.1723 H6            1 RES     
   12280 H6         608.5145  -641.6745   192.1449 H6            1 RES     
   12281 H6         607.3113  -642.4466   190.1474 H6            1 RES     
   12282 H6         608.6308  -641.8418   189.0735 H6            1 RES     
   12283 H6         610.2375  -643.4625   190.1131 H6            1 RES     
   12284 H6         608.9915  -643.9346   191.2910 H6            1 RES     
   12285 H6         607.4823  -644.7037   189.3747 H6            1 RES     
   12286 H6         608.8409  -644.3443   188.2526 H6            1 RES     
   12287 H6         610.2484  -646.0691   189.4799 H6            1 RES     
   12288 H6         608.7441  -646.7270   188.7365 H6            1 RES     
   12289 H6         607.5656  -646.6283   190.9480 H6            1 RES     
   12290 H6         609.0902  -646.0666   191.7353 H6            1 RES     
   12291 H6         608.7746  -648.4805   192.0483 H6            1 RES     
   12292 H6         608.7139  -648.7375   190.2644 H6            1 RES     
   12293 H6         610.2426  -648.1569   191.0486 H6            1 RES     
   12294 C0         606.9608  -641.5110   194.3574 C0            1 RES     
   12295 C0         607.9055  -642.7547   194.4553 C0            1 RES     
   12296 C0         607.4017  -643.8973   193.5063 C0            1 RES     
   12297 C0         606.1559  -644.7465   193.8602 C0            1 RES     
   12298 C0         604.7740  -644.0640   193.8028 C0            1 RES     
   12299 C0         604.4113  -643.3947   192.4603 C0            1 RES     
   12300 C0         604.4107  -644.3560   191.2645 C0            1 RES     
   12301 C0         603.9915  -643.6271   189.9893 C0            1 RES     
   12302 C0         608.1290  -643.3778   195.8646 C0            1 RES     
   12303 C0         608.9188  -642.5146   196.8339 C0            1 RES     
   12304 C0         609.2629  -643.2511   198.1292 C0            1 RES     
   12305 C0         610.1001  -642.3365   199.0306 C0            1 RES     
   12306 C0         610.4768  -643.0338   200.3434 C0            1 RES     
   12307 C0         611.3729  -642.1657   201.2431 C0            1 RES     
   12308 C0         610.6877  -640.8723   201.7123 C0            1 RES     
   12309 C0         611.5910  -640.0840   202.6546 C0            1 RES     
   12310 H6         606.0623  -641.7600   194.9484 H6            1 RES     
   12311 H6         606.5906  -641.4636   193.3213 H6            1 RES     
   12312 H6         608.8967  -642.4610   194.0578 H6            1 RES     
   12313 H6         608.2372  -644.6286   193.4496 H6            1 RES     
   12314 H6         607.2484  -643.5052   192.4868 H6            1 RES     
   12315 H6         606.2900  -645.2147   194.8565 H6            1 RES     
   12316 H6         606.1293  -645.5857   193.1322 H6            1 RES     
   12317 H6         604.6860  -643.3196   194.6122 H6            1 RES     
   12318 H6         604.0094  -644.8411   194.0201 H6            1 RES     
   12319 H6         605.1013  -642.5616   192.2394 H6            1 RES     
   12320 H6         603.3930  -642.9607   192.5693 H6            1 RES     
   12321 H6         605.4278  -644.7718   191.1056 H6            1 RES     
   12322 H6         603.7026  -645.1910   191.4549 H6            1 RES     
   12323 H6         602.9666  -643.2122   190.1004 H6            1 RES     
   12324 H6         603.9985  -644.3336   189.1333 H6            1 RES     
   12325 H6         604.6962  -642.7961   189.7695 H6            1 RES     
   12326 H6         608.7288  -644.3049   195.7245 H6            1 RES     
   12327 H6         607.1569  -643.6588   196.3248 H6            1 RES     
   12328 H6         609.8764  -642.2399   196.3485 H6            1 RES     
   12329 H6         608.3162  -641.6285   197.0923 H6            1 RES     
   12330 H6         608.3276  -643.5479   198.6512 H6            1 RES     
   12331 H6         609.8507  -644.1665   197.8921 H6            1 RES     
   12332 H6         611.0314  -642.0458   198.4948 H6            1 RES     
   12333 H6         609.5067  -641.4232   199.2424 H6            1 RES     
   12334 H6         609.5551  -643.3168   200.8970 H6            1 RES     
   12335 H6         611.0378  -643.9636   200.1027 H6            1 RES     
   12336 H6         612.3119  -641.9173   200.7006 H6            1 RES     
   12337 H6         611.6386  -642.7711   202.1373 H6            1 RES     
   12338 H6         609.7444  -641.1228   202.2443 H6            1 RES     
   12339 H6         610.4512  -640.2209   200.8456 H6            1 RES     
   12340 H6         611.0715  -639.1570   202.9771 H6            1 RES     
   12341 H6         611.8316  -640.6889   203.5546 H6            1 RES     
   12342 H6         612.5340  -639.8028   202.1388 H6            1 RES     
   12343 C0         620.4184  -639.8788   196.5641 C0            1 RES     
   12344 C1         618.9827  -639.8656   197.1045 C1            1 RES     
   12345 C1         618.9265  -639.8814   198.4547 C1            1 RES     
   12346 S2         617.3562  -639.8404   199.0273 S2            1 RES     
   12347 C1         616.7003  -639.7889   197.4533 C1            1 RES     
   12348 C1         617.7254  -639.8029   196.5005 C1            1 RES     
   12349 C1         620.2537  -639.9213   198.9523 C1            1 RES     
   12350 C1         621.1406  -639.9553   197.9149 C1            1 RES     
   12351 C1         622.4690  -640.0347   198.3453 C1            1 RES     
   12352 C1         622.5523  -640.0701   199.7610 C1            1 RES     
   12353 S2         620.9891  -639.9617   200.4386 S2            1 RES     
   12354 H3         617.5650  -639.7699   195.4319 H3            1 RES     
   12355 H3         623.3063  -640.0762   197.6651 H3            1 RES     
   12356 N4         624.8188  -640.0136   202.7737 N4            1 RES     
   12357 C1         623.7313  -639.8536   201.9668 C1            1 RES     
   12358 C1         623.7670  -640.2317   200.6045 C1            1 RES     
   12359 C1         624.9639  -640.7959   200.1273 C1            1 RES     
   12360 N4         625.1507  -641.2547   198.8640 N4            1 RES     
   12361 S2         626.6978  -641.8341   198.9153 S2            1 RES     
   12362 N4         627.1749  -641.5448   200.4697 N4            1 RES     
   12363 C1         626.0734  -640.9641   201.0035 C1            1 RES     
   12364 C1         625.9825  -640.5574   202.3278 C1            1 RES     
   12365 H5         622.8406  -639.4156   202.3960 H5            1 RES     
   12366 C0         620.5727  -638.4524   195.9104 C0            1 RES     
   12367 C0         621.8760  -637.7368   195.4082 C0            1 RES     
   12368 C0         621.6242  -636.1857   195.3450 C0            1 RES     
   12369 C0         620.7847  -635.5721   194.1854 C0            1 RES     
   12370 C0         619.2808  -635.9025   194.0868 C0            1 RES     
   12371 C0         618.4464  -635.5906   195.3441 C0            1 RES     
   12372 C0         618.4338  -634.1000   195.7080 C0            1 RES     
   12373 C0         617.5469  -633.8456   196.9248 C0            1 RES     
   12374 C0         622.4446  -638.1789   194.0295 C0            1 RES     
   12375 C0         623.3697  -639.3920   194.0566 C0            1 RES     
   12376 C0         623.7654  -639.8029   192.6264 C0            1 RES     
   12377 C0         624.6511  -641.0587   192.6108 C0            1 RES     
   12378 C0         624.8310  -641.5787   191.1740 C0            1 RES     
   12379 C0         625.5400  -642.9433   191.0920 C0            1 RES     
   12380 C0         624.7007  -644.0835   191.7026 C0            1 RES     
   12381 C0         625.3673  -645.4414   191.5061 C0            1 RES     
   12382 H6         619.8230  -638.4027   195.1083 H6            1 RES     
   12383 H6         620.2353  -637.7833   196.7324 H6            1 RES     
   12384 H6         622.6554  -637.8493   196.1945 H6            1 RES     
   12385 H6         622.6289  -635.7172   195.2419 H6            1 RES     
   12386 H6         621.2325  -635.8213   196.3189 H6            1 RES     
   12387 H6         621.2543  -635.8329   193.2136 H6            1 RES     
   12388 H6         620.8721  -634.4689   194.2805 H6            1 RES     
   12389 H6         619.1450  -636.9597   193.8050 H6            1 RES     
   12390 H6         618.8581  -635.3240   193.2366 H6            1 RES     
   12391 H6         618.8123  -636.1767   196.2071 H6            1 RES     
   12392 H6         617.4010  -635.9110   195.1407 H6            1 RES     
   12393 H6         619.4604  -633.7528   195.9466 H6            1 RES     
   12394 H6         618.0428  -633.5117   194.8496 H6            1 RES     
   12395 H6         616.5030  -634.1641   196.7170 H6            1 RES     
   12396 H6         617.5460  -632.7617   197.1658 H6            1 RES     
   12397 H6         617.9299  -634.4057   197.8047 H6            1 RES     
   12398 H6         623.0929  -637.3699   193.6231 H6            1 RES     
   12399 H6         621.5969  -638.3166   193.3225 H6            1 RES     
   12400 H6         624.2744  -639.1657   194.6621 H6            1 RES     
   12401 H6         622.8445  -640.2140   194.5237 H6            1 RES     
   12402 H6         622.8249  -640.0266   192.0746 H6            1 RES     
   12403 H6         624.2899  -638.9716   192.1067 H6            1 RES     
   12404 H6         625.6374  -640.8501   193.0784 H6            1 RES     
   12405 H6         624.1610  -641.8321   193.2148 H6            1 RES     
   12406 H6         623.8388  -641.6858   190.6818 H6            1 RES     
   12407 H6         625.4167  -640.8269   190.6004 H6            1 RES     
   12408 H6         626.5352  -642.8876   191.5825 H6            1 RES     
   12409 H6         625.6931  -643.1724   190.0147 H6            1 RES     
   12410 H6         623.7011  -644.1113   191.2147 H6            1 RES     
   12411 H6         624.5653  -643.9318   192.7897 H6            1 RES     
   12412 H6         624.7305  -646.2328   191.9516 H6            1 RES     
   12413 H6         625.4958  -645.6566   190.4237 H6            1 RES     
   12414 H6         626.3605  -645.4586   192.0056 H6            1 RES     
   12415 C0         620.5089  -641.1042   195.5671 C0            1 RES     
   12416 C0         621.5883  -642.2358   195.6238 C0            1 RES     
   12417 C0         621.8227  -642.8369   194.1942 C0            1 RES     
   12418 C0         620.7859  -643.7825   193.5390 C0            1 RES     
   12419 C0         619.4407  -643.1796   193.0854 C0            1 RES     
   12420 C0         619.5348  -641.9840   192.1140 C0            1 RES     
   12421 C0         620.2704  -642.3004   190.8053 C0            1 RES     
   12422 C0         620.2723  -641.0835   189.8821 C0            1 RES     
   12423 C0         621.3334  -643.4235   196.5976 C0            1 RES     
   12424 C0         621.4067  -643.0741   198.0745 C0            1 RES     
   12425 C0         621.3324  -644.3087   198.9739 C0            1 RES     
   12426 C0         621.4637  -643.8818   200.4404 C0            1 RES     
   12427 C0         621.4012  -645.0885   201.3845 C0            1 RES     
   12428 C0         621.5958  -644.7008   202.8603 C0            1 RES     
   12429 C0         620.4905  -643.7755   203.3937 C0            1 RES     
   12430 C0         620.6923  -643.4781   204.8757 C0            1 RES     
   12431 H6         619.5323  -641.6139   195.4980 H6            1 RES     
   12432 H6         620.6141  -640.6018   194.5927 H6            1 RES     
   12433 H6         622.5532  -641.7715   195.9069 H6            1 RES     
   12434 H6         622.7505  -643.4442   194.2739 H6            1 RES     
   12435 H6         622.0283  -642.0298   193.4710 H6            1 RES     
   12436 H6         620.5914  -644.6475   194.2052 H6            1 RES     
   12437 H6         621.2712  -644.2022   192.6316 H6            1 RES     
   12438 H6         618.8433  -642.8839   193.9643 H6            1 RES     
   12439 H6         618.8652  -643.9882   192.5847 H6            1 RES     
   12440 H6         620.0333  -641.1256   192.5971 H6            1 RES     
   12441 H6         618.4957  -641.6696   191.8718 H6            1 RES     
   12442 H6         621.3252  -642.5760   191.0147 H6            1 RES     
   12443 H6         619.7694  -643.1472   190.2887 H6            1 RES     
   12444 H6         619.2311  -640.7872   189.6311 H6            1 RES     
   12445 H6         620.8097  -641.3261   188.9419 H6            1 RES     
   12446 H6         620.7838  -640.2270   190.3725 H6            1 RES     
   12447 H6         622.1372  -644.1731   196.4220 H6            1 RES     
   12448 H6         620.3555  -643.9043   196.3779 H6            1 RES     
   12449 H6         622.3841  -642.5878   198.2651 H6            1 RES     
   12450 H6         620.5599  -642.4147   198.3258 H6            1 RES     
   12451 H6         620.3642  -644.8307   198.8144 H6            1 RES     
   12452 H6         622.1642  -645.0043   198.7209 H6            1 RES     
   12453 H6         622.4358  -643.3590   200.5848 H6            1 RES     
   12454 H6         620.6383  -643.1767   200.6701 H6            1 RES     
   12455 H6         620.4282  -645.6122   201.2617 H6            1 RES     
   12456 H6         622.2146  -645.7959   201.1100 H6            1 RES     
   12457 H6         622.5875  -644.2127   202.9869 H6            1 RES     
   12458 H6         621.5922  -645.6389   203.4575 H6            1 RES     
   12459 H6         619.5001  -644.2609   203.2560 H6            1 RES     
   12460 H6         620.4970  -642.8081   202.8500 H6            1 RES     
   12461 H6         619.8812  -642.8092   205.2333 H6            1 RES     
   12462 H6         620.6642  -644.4189   205.4654 H6            1 RES     
   12463 H6         621.6683  -642.9726   205.0377 H6            1 RES     
   12464 C0         630.9413  -640.3395   204.4677 C0            1 RES     
   12465 C1         629.4544  -640.6048   204.1989 C1            1 RES     
   12466 C1         628.8358  -641.2308   205.2246 C1            1 RES     
   12467 S2         627.2111  -641.4890   204.9263 S2            1 RES     
   12468 C1         627.2941  -640.7463   203.3927 C1            1 RES     
   12469 C1         628.5976  -640.3045   203.1383 C1            1 RES     
   12470 C1         629.7936  -641.4611   206.2446 C1            1 RES     
   12471 C1         631.0170  -641.0020   205.8488 C1            1 RES     
   12472 C1         632.0136  -641.2371   206.8014 C1            1 RES     
   12473 C1         631.4939  -641.9070   207.9387 C1            1 RES     
   12474 S2         629.8147  -642.1524   207.7523 S2            1 RES     
   12475 H3         628.9033  -639.7955   202.2348 H3            1 RES     
   12476 H3         633.0439  -640.9475   206.6588 H3            1 RES     
   12477 N4         632.1814  -643.1672   211.4253 N4            1 RES     
   12478 C1         631.5359  -642.6845   210.3255 C1            1 RES     
   12479 C1         632.2353  -642.4047   209.1285 C1            1 RES     
   12480 C1         633.6177  -642.6647   209.1184 C1            1 RES     
   12481 N4         634.4263  -642.4983   208.0415 N4            1 RES     
   12482 S2         635.8939  -643.0027   208.6104 S2            1 RES     
   12483 N4         635.5820  -643.4367   210.1730 N4            1 RES     
   12484 C1         634.2550  -643.1855   210.2802 C1            1 RES     
   12485 C1         633.5167  -643.4239   211.4315 C1            1 RES     
   12486 H5         630.4714  -642.5083   210.3979 H5            1 RES     
   12487 C0         631.0146  -638.7686   204.5796 C0            1 RES     
   12488 C0         632.1964  -637.8737   205.0949 C0            1 RES     
   12489 C0         631.6346  -636.4678   205.5207 C0            1 RES     
   12490 C0         631.2475  -635.4155   204.4396 C0            1 RES     
   12491 C0         630.0541  -635.6999   203.5040 C0            1 RES     
   12492 C0         628.7172  -636.0093   204.2049 C0            1 RES     
   12493 C0         628.1974  -634.8451   205.0586 C0            1 RES     
   12494 C0         626.8455  -635.1888   205.6801 C0            1 RES     
   12495 C0         633.3835  -637.6314   204.1195 C0            1 RES     
   12496 C0         634.4686  -638.7042   204.1229 C0            1 RES     
   12497 C0         635.5192  -638.4148   203.0350 C0            1 RES     
   12498 C0         636.5980  -639.5072   202.9693 C0            1 RES     
   12499 C0         637.4888  -639.3170   201.7293 C0            1 RES     
   12500 C0         638.4673  -640.4805   201.4837 C0            1 RES     
   12501 C0         637.7459  -641.7924   201.1154 C0            1 RES     
   12502 C0         638.7344  -642.8990   200.7619 C0            1 RES     
   12503 H6         630.6883  -638.3787   203.6052 H6            1 RES     
   12504 H6         630.2119  -638.5514   205.3183 H6            1 RES     
   12505 H6         632.5701  -638.3117   206.0471 H6            1 RES     
   12506 H6         632.4447  -635.9806   206.1087 H6            1 RES     
   12507 H6         630.7922  -636.5922   206.2347 H6            1 RES     
   12508 H6         632.1324  -635.1978   203.8051 H6            1 RES     
   12509 H6         631.0213  -634.4729   204.9818 H6            1 RES     
   12510 H6         630.3063  -636.5181   202.8095 H6            1 RES     
   12511 H6         629.9083  -634.8092   202.8545 H6            1 RES     
   12512 H6         628.8098  -636.9138   204.8338 H6            1 RES     
   12513 H6         627.9664  -636.2269   203.4137 H6            1 RES     
   12514 H6         628.9105  -634.6200   205.8786 H6            1 RES     
   12515 H6         628.0804  -633.9414   204.4220 H6            1 RES     
   12516 H6         626.0975  -635.4026   204.8869 H6            1 RES     
   12517 H6         626.4848  -634.3314   206.2864 H6            1 RES     
   12518 H6         626.9396  -636.0773   206.3406 H6            1 RES     
   12519 H6         633.9302  -636.7116   204.4276 H6            1 RES     
   12520 H6         632.9758  -637.4538   203.0998 H6            1 RES     
   12521 H6         634.9481  -638.7555   205.1247 H6            1 RES     
   12522 H6         634.0068  -639.6603   203.9172 H6            1 RES     
   12523 H6         634.9849  -638.3862   202.0589 H6            1 RES     
   12524 H6         636.0004  -637.4266   203.2026 H6            1 RES     
   12525 H6         637.2116  -639.5101   203.8958 H6            1 RES     
   12526 H6         636.0972  -640.4811   202.9068 H6            1 RES     
   12527 H6         636.8563  -639.2126   200.8197 H6            1 RES     
   12528 H6         638.0653  -638.3740   201.8538 H6            1 RES     
   12529 H6         639.1154  -640.6299   202.3736 H6            1 RES     
   12530 H6         639.1129  -640.1941   200.6248 H6            1 RES     
   12531 H6         637.0863  -641.6193   200.2361 H6            1 RES     
   12532 H6         637.1300  -642.1518   201.9607 H6            1 RES     
   12533 H6         638.1770  -643.8206   200.4968 H6            1 RES     
   12534 H6         639.3574  -642.5985   199.8924 H6            1 RES     
   12535 H6         639.3942  -643.1176   201.6298 H6            1 RES     
   12536 C0         631.7349  -640.9791   203.2574 C0            1 RES     
   12537 C0         632.9228  -641.9891   203.3904 C0            1 RES     
   12538 C0         633.8774  -641.8733   202.1513 C0            1 RES     
   12539 C0         633.4745  -642.4438   200.7691 C0            1 RES     
   12540 C0         632.3486  -641.7318   199.9919 C0            1 RES     
   12541 C0         632.5590  -640.2244   199.7363 C0            1 RES     
   12542 C0         633.8325  -639.8979   198.9454 C0            1 RES     
   12543 C0         633.9368  -638.3954   198.6912 C0            1 RES     
   12544 C0         632.5689  -643.4943   203.5727 C0            1 RES     
   12545 C0         631.9230  -643.8489   204.9014 C0            1 RES     
   12546 C0         631.7697  -645.3581   205.0951 C0            1 RES     
   12547 C0         631.1603  -645.6376   206.4737 C0            1 RES     
   12548 C0         630.9917  -647.1419   206.7188 C0            1 RES     
   12549 C0         630.4430  -647.4592   208.1204 C0            1 RES     
   12550 C0         629.0310  -646.9005   208.3582 C0            1 RES     
   12551 C0         628.5074  -647.3009   209.7334 C0            1 RES     
   12552 H6         631.0322  -641.4247   202.5321 H6            1 RES     
   12553 H6         632.1211  -640.0882   202.7379 H6            1 RES     
   12554 H6         633.5353  -641.6812   204.2604 H6            1 RES     
   12555 H6         634.7985  -642.4296   202.4308 H6            1 RES     
   12556 H6         634.1723  -640.8219   201.9951 H6            1 RES     
   12557 H6         633.2273  -643.5207   200.8638 H6            1 RES     
   12558 H6         634.3835  -642.3966   200.1315 H6            1 RES     
   12559 H6         631.3832  -641.8792   200.5049 H6            1 RES     
   12560 H6         632.2506  -642.2395   199.0078 H6            1 RES     
   12561 H6         632.5854  -639.6661   200.6884 H6            1 RES     
   12562 H6         631.6793  -639.8582   199.1625 H6            1 RES     
   12563 H6         634.7307  -640.2143   199.5161 H6            1 RES     
   12564 H6         633.8154  -640.4308   197.9704 H6            1 RES     
   12565 H6         633.0634  -638.0414   198.1024 H6            1 RES     
   12566 H6         634.8632  -638.1743   198.1214 H6            1 RES     
   12567 H6         633.9720  -637.8418   199.6544 H6            1 RES     
   12568 H6         633.5240  -644.0649   203.5368 H6            1 RES     
   12569 H6         631.9222  -643.8460   202.7398 H6            1 RES     
   12570 H6         632.5804  -643.4792   205.7134 H6            1 RES     
   12571 H6         630.9198  -643.3939   204.9411 H6            1 RES     
   12572 H6         631.1156  -645.7736   204.2982 H6            1 RES     
   12573 H6         632.7691  -645.8450   205.0328 H6            1 RES     
   12574 H6         631.8240  -645.2146   207.2608 H6            1 RES     
   12575 H6         630.1741  -645.1316   206.5244 H6            1 RES     
   12576 H6         630.3182  -647.5755   205.9478 H6            1 RES     
   12577 H6         631.9870  -647.6299   206.6262 H6            1 RES     
   12578 H6         631.1396  -647.0585   208.8898 H6            1 RES     
   12579 H6         630.4092  -648.5657   208.2256 H6            1 RES     
   12580 H6         628.3396  -647.2937   207.5818 H6            1 RES     
   12581 H6         629.0376  -645.7920   208.3077 H6            1 RES     
   12582 H6         627.4880  -646.8848   209.8774 H6            1 RES     
   12583 H6         628.4561  -648.4071   209.8197 H6            1 RES     
   12584 H6         629.1711  -646.9012   210.5296 H6            1 RES     
   12585 C0         636.8886  -644.0840   215.6041 C0            1 RES     
   12586 C1         635.7668  -644.2330   214.5683 C1            1 RES     
   12587 C1         634.9397  -645.2690   214.8310 C1            1 RES     
   12588 S2         633.7083  -645.4015   213.7079 S2            1 RES     
   12589 C1         634.2553  -644.0439   212.8315 C1            1 RES     
   12590 C1         635.3971  -643.5051   213.4357 C1            1 RES     
   12591 C1         635.3981  -645.9137   216.0078 C1            1 RES     
   12592 C1         636.5258  -645.2975   216.4689 C1            1 RES     
   12593 C1         637.0480  -645.9151   217.6099 C1            1 RES     
   12594 C1         636.2703  -647.0386   217.9913 C1            1 RES     
   12595 S2         634.9408  -647.2115   216.9343 S2            1 RES     
   12596 H3         635.9268  -642.6358   213.0717 H3            1 RES     
   12597 H3         637.9398  -645.5689   218.1104 H3            1 RES     
   12598 N4         635.6903  -649.7231   220.5746 N4            1 RES     
   12599 C1         635.4785  -648.8101   219.5842 C1            1 RES     
   12600 C1         636.5313  -648.0035   219.0931 C1            1 RES     
   12601 C1         637.8050  -648.1992   219.6568 C1            1 RES     
   12602 N4         638.9291  -647.5453   219.2692 N4            1 RES     
   12603 S2         640.0896  -648.2189   220.2344 S2            1 RES     
   12604 N4         639.2569  -649.3196   221.1412 N4            1 RES     
   12605 C1         637.9924  -649.1744   220.6771 C1            1 RES     
   12606 C1         636.9152  -649.9243   221.1295 C1            1 RES     
   12607 H5         634.4759  -648.7101   219.1915 H5            1 RES     
   12608 C0         636.5318  -642.7322   216.3329 C0            1 RES     
   12609 C0         637.1327  -642.1404   217.6564 C0            1 RES     
   12610 C0         636.1270  -641.0923   218.2590 C0            1 RES     
   12611 C0         635.9978  -639.6739   217.6284 C0            1 RES     
   12612 C0         635.4198  -639.5317   216.2049 C0            1 RES     
   12613 C0         634.0279  -640.1550   215.9857 C0            1 RES     
   12614 C0         632.9346  -639.5149   216.8514 C0            1 RES     
   12615 C0         631.5714  -640.1333   216.5493 C0            1 RES     
   12616 C0         638.5264  -641.4562   217.5616 C0            1 RES     
   12617 C0         639.7279  -642.3895   217.6782 C0            1 RES     
   12618 C0         641.0388  -641.6155   217.4470 C0            1 RES     
   12619 C0         642.2689  -642.5352   217.4988 C0            1 RES     
   12620 C0         643.5284  -641.7846   217.0323 C0            1 RES     
   12621 C0         644.7641  -642.6886   216.8669 C0            1 RES     
   12622 C0         644.6020  -643.7082   215.7218 C0            1 RES     
   12623 C0         645.8787  -644.5125   215.4986 C0            1 RES     
   12624 H6         636.5677  -641.9514   215.5603 H6            1 RES     
   12625 H6         635.4652  -642.8910   216.6058 H6            1 RES     
   12626 H6         637.1591  -642.9530   218.4161 H6            1 RES     
   12627 H6         636.4693  -640.9052   219.3018 H6            1 RES     
   12628 H6         635.1175  -641.5453   218.3617 H6            1 RES     
   12629 H6         636.9884  -639.1727   217.6446 H6            1 RES     
   12630 H6         635.3459  -639.0839   218.3070 H6            1 RES     
   12631 H6         636.1296  -639.9414   215.4675 H6            1 RES     
   12632 H6         635.3565  -638.4472   215.9679 H6            1 RES     
   12633 H6         634.0568  -641.2438   216.1754 H6            1 RES     
   12634 H6         633.7595  -640.0084   214.9164 H6            1 RES     
   12635 H6         633.1560  -639.6687   217.9279 H6            1 RES     
   12636 H6         632.8879  -638.4239   216.6434 H6            1 RES     
   12637 H6         631.3054  -639.9823   215.4812 H6            1 RES     
   12638 H6         630.7950  -639.6512   217.1800 H6            1 RES     
   12639 H6         631.5844  -641.2220   216.7708 H6            1 RES     
   12640 H6         638.6546  -640.7629   218.4233 H6            1 RES     
   12641 H6         638.5610  -640.8461   216.6320 H6            1 RES     
   12642 H6         639.7337  -642.8773   218.6772 H6            1 RES     
   12643 H6         639.6390  -643.1595   216.9239 H6            1 RES     
   12644 H6         640.9797  -641.1608   216.4326 H6            1 RES     
   12645 H6         641.1533  -640.7992   218.1931 H6            1 RES     
   12646 H6         642.4123  -642.9428   218.5227 H6            1 RES     
   12647 H6         642.0894  -643.3868   216.8311 H6            1 RES     
   12648 H6         643.3372  -641.2946   216.0518 H6            1 RES     
   12649 H6         643.7551  -640.9869   217.7736 H6            1 RES     
   12650 H6         644.9879  -643.2094   217.8224 H6            1 RES     
   12651 H6         645.6247  -642.0301   216.6174 H6            1 RES     
   12652 H6         644.3580  -643.1713   214.7783 H6            1 RES     
   12653 H6         643.7905  -644.4249   215.9471 H6            1 RES     
   12654 H6         645.7233  -645.2271   214.6646 H6            1 RES     
   12655 H6         646.7207  -643.8372   215.2352 H6            1 RES     
   12656 H6         646.1386  -645.0848   216.4158 H6            1 RES     
   12657 C0         638.2478  -644.0889   214.7940 C0            1 RES     
   12658 C0         639.4692  -645.0225   215.0864 C0            1 RES     
   12659 C0         640.8017  -644.3371   214.6231 C0            1 RES     
   12660 C0         641.1722  -644.2300   213.1232 C0            1 RES     
   12661 C0         640.3492  -643.2693   212.2407 C0            1 RES     
   12662 C0         640.2833  -641.8049   212.7234 C0            1 RES     
   12663 C0         641.6540  -641.1271   212.8478 C0            1 RES     
   12664 C0         641.4960  -639.6701   213.2781 C0            1 RES     
   12665 C0         639.4404  -646.4551   214.4774 C0            1 RES     
   12666 C0         638.3962  -647.3868   215.0690 C0            1 RES     
   12667 C0         638.5388  -648.8235   214.5648 C0            1 RES     
   12668 C0         637.4876  -649.7100   215.2423 C0            1 RES     
   12669 C0         637.5938  -651.1660   214.7729 C0            1 RES     
   12670 C0         636.5948  -652.0952   215.4833 C0            1 RES     
   12671 C0         635.1274  -651.7369   215.1989 C0            1 RES     
   12672 C0         634.1813  -652.7277   215.8688 C0            1 RES     
   12673 H6         638.0477  -644.1743   213.7118 H6            1 RES     
   12674 H6         638.5940  -643.0508   214.9175 H6            1 RES     
   12675 H6         639.5617  -645.1273   216.1852 H6            1 RES     
   12676 H6         641.6200  -644.9385   215.0755 H6            1 RES     
   12677 H6         640.8758  -643.3223   215.0490 H6            1 RES     
   12678 H6         641.1720  -645.2386   212.6623 H6            1 RES     
   12679 H6         642.2257  -643.8788   213.0831 H6            1 RES     
   12680 H6         639.3231  -643.6548   212.1171 H6            1 RES     
   12681 H6         640.8021  -643.2793   211.2255 H6            1 RES     
   12682 H6         639.7694  -641.7371   213.6982 H6            1 RES     
   12683 H6         639.6713  -641.2391   211.9869 H6            1 RES     
   12684 H6         642.2716  -641.6468   213.6101 H6            1 RES     
   12685 H6         642.1797  -641.1617   211.8693 H6            1 RES     
   12686 H6         640.8988  -639.1082   212.5282 H6            1 RES     
   12687 H6         642.4947  -639.1941   213.3666 H6            1 RES     
   12688 H6         640.9862  -639.6113   214.2641 H6            1 RES     
   12689 H6         640.4256  -646.9257   214.6935 H6            1 RES     
   12690 H6         639.3126  -646.4067   213.3742 H6            1 RES     
   12691 H6         638.5380  -647.4094   216.1678 H6            1 RES     
   12692 H6         637.3948  -647.0220   214.7879 H6            1 RES     
   12693 H6         638.4044  -648.8486   213.4617 H6            1 RES     
   12694 H6         639.5541  -649.2066   214.8140 H6            1 RES     
   12695 H6         637.6327  -649.6737   216.3453 H6            1 RES     
   12696 H6         636.4842  -649.3043   214.9977 H6            1 RES     
   12697 H6         637.4358  -651.2193   213.6737 H6            1 RES     
   12698 H6         638.6186  -651.5366   214.9959 H6            1 RES     
   12699 H6         636.7815  -652.0700   216.5798 H6            1 RES     
   12700 H6         636.7836  -653.1302   215.1230 H6            1 RES     
   12701 H6         634.9465  -651.7521   214.1023 H6            1 RES     
   12702 H6         634.8911  -650.7255   215.5897 H6            1 RES     
   12703 H6         633.1306  -652.4451   215.6467 H6            1 RES     
   12704 H6         634.3627  -653.7542   215.4853 H6            1 RES     
   12705 H6         634.3281  -652.7161   216.9700 H6            1 RES     
   12706 C0         638.2465  -652.3228   225.7869 C0            1 RES     
   12707 C1         637.7416  -652.0128   224.3718 C1            1 RES     
   12708 C1         637.1537  -653.0743   223.7766 C1            1 RES     
   12709 S2         636.5862  -652.7126   222.2461 S2            1 RES     
   12710 C1         637.1135  -651.0934   222.3477 C1            1 RES     
   12711 C1         637.7265  -650.8601   223.5842 C1            1 RES     
   12712 C1         637.2078  -654.1708   224.6741 C1            1 RES     
   12713 C1         637.8508  -653.8041   225.8213 C1            1 RES     
   12714 C1         637.9694  -654.8589   226.7321 C1            1 RES     
   12715 C1         637.3950  -656.0507   226.2203 C1            1 RES     
   12716 S2         636.7233  -655.7573   224.6784 S2            1 RES     
   12717 H3         638.1371  -649.9084   223.8912 H3            1 RES     
   12718 H3         638.4537  -654.7561   227.6915 H3            1 RES     
   12719 N4         636.4296  -659.6258   226.9302 N4            1 RES     
   12720 C1         636.4481  -658.3687   226.4022 C1            1 RES     
   12721 C1         637.3846  -657.4033   226.8395 C1            1 RES     
   12722 C1         638.3046  -657.8037   227.8254 C1            1 RES     
   12723 N4         639.2958  -657.0198   228.3196 N4            1 RES     
   12724 S2         640.0600  -658.0302   229.3812 S2            1 RES     
   12725 N4         639.2091  -659.4408   229.2636 N4            1 RES     
   12726 C1         638.2669  -659.1303   228.3409 C1            1 RES     
   12727 C1         637.3120  -660.0281   227.8832 C1            1 RES     
   12728 H5         635.7151  -658.1249   225.6455 H5            1 RES     
   12729 C0         637.3040  -651.4552   226.7061 C0            1 RES     
   12730 C0         637.1265  -651.5123   228.2643 C0            1 RES     
   12731 C0         635.7428  -650.8732   228.6522 C0            1 RES     
   12732 C0         635.5605  -649.3264   228.6413 C0            1 RES     
   12733 C0         635.6262  -648.5690   227.2987 C0            1 RES     
   12734 C0         634.6513  -649.0574   226.2100 C0            1 RES     
   12735 C0         633.1766  -648.9031   226.6043 C0            1 RES     
   12736 C0         632.2607  -649.3490   225.4665 C0            1 RES     
   12737 C0         638.2217  -650.8275   229.1310 C0            1 RES     
   12738 C0         639.4437  -651.6850   229.4468 C0            1 RES     
   12739 C0         640.5032  -650.8604   230.2008 C0            1 RES     
   12740 C0         641.7744  -651.6758   230.4849 C0            1 RES     
   12741 C0         642.8944  -650.7668   231.0204 C0            1 RES     
   12742 C0         644.2590  -651.4699   231.1429 C0            1 RES     
   12743 C0         644.8459  -651.8649   229.7730 C0            1 RES     
   12744 C0         646.2473  -652.4519   229.9084 C0            1 RES     
   12745 H6         637.4779  -650.4088   226.4184 H6            1 RES     
   12746 H6         636.2941  -651.7445   226.3406 H6            1 RES     
   12747 H6         637.0202  -652.5798   228.5599 H6            1 RES     
   12748 H6         635.5547  -651.1702   229.7086 H6            1 RES     
   12749 H6         634.9250  -651.3466   228.0676 H6            1 RES     
   12750 H6         636.3000  -648.8642   229.3287 H6            1 RES     
   12751 H6         634.5627  -649.1220   229.0842 H6            1 RES     
   12752 H6         636.6567  -648.5847   226.9073 H6            1 RES     
   12753 H6         635.4137  -647.4963   227.4999 H6            1 RES     
   12754 H6         634.8548  -650.1133   225.9533 H6            1 RES     
   12755 H6         634.8360  -648.4493   225.2973 H6            1 RES     
   12756 H6         632.9494  -649.5220   227.4970 H6            1 RES     
   12757 H6         632.9647  -647.8374   226.8389 H6            1 RES     
   12758 H6         632.4460  -648.7375   224.5576 H6            1 RES     
   12759 H6         631.2002  -649.2221   225.7697 H6            1 RES     
   12760 H6         632.4369  -650.4196   225.2270 H6            1 RES     
   12761 H6         637.8030  -650.5961   230.1365 H6            1 RES     
   12762 H6         638.5015  -649.8624   228.6538 H6            1 RES     
   12763 H6         639.1406  -652.5716   230.0453 H6            1 RES     
   12764 H6         639.8693  -652.0325   228.5153 H6            1 RES     
   12765 H6         640.7741  -649.9977   229.5517 H6            1 RES     
   12766 H6         640.0923  -650.4674   231.1563 H6            1 RES     
   12767 H6         641.5619  -652.4989   231.2007 H6            1 RES     
   12768 H6         642.1035  -652.1372   229.5457 H6            1 RES     
   12769 H6         643.0272  -649.8909   230.3472 H6            1 RES     
   12770 H6         642.5881  -650.3856   232.0195 H6            1 RES     
   12771 H6         644.1728  -652.3612   231.8004 H6            1 RES     
   12772 H6         644.9603  -650.7502   231.6192 H6            1 RES     
   12773 H6         644.9057  -650.9651   229.1211 H6            1 RES     
   12774 H6         644.2117  -652.6243   229.2790 H6            1 RES     
   12775 H6         646.6355  -652.7155   228.9034 H6            1 RES     
   12776 H6         646.9343  -651.7114   230.3713 H6            1 RES     
   12777 H6         646.2210  -653.3710   230.5336 H6            1 RES     
   12778 C0         639.7790  -651.9298   225.8102 C0            1 RES     
   12779 C0         640.9439  -652.8665   226.2735 C0            1 RES     
   12780 C0         642.1418  -652.0155   226.8218 C0            1 RES     
   12781 C0         643.0768  -651.2333   225.8666 C0            1 RES     
   12782 C0         642.5041  -649.9965   225.1446 C0            1 RES     
   12783 C0         641.8935  -648.9106   226.0555 C0            1 RES     
   12784 C0         642.8772  -648.3312   227.0805 C0            1 RES     
   12785 C0         642.2101  -647.2302   227.9027 C0            1 RES     
   12786 C0         641.5178  -653.8691   225.2296 C0            1 RES     
   12787 C0         640.5758  -654.9913   224.8271 C0            1 RES     
   12788 C0         641.2559  -656.0410   223.9473 C0            1 RES     
   12789 C0         640.2606  -657.1618   223.6261 C0            1 RES     
   12790 C0         640.8987  -658.2453   222.7485 C0            1 RES     
   12791 C0         639.9452  -659.4179   222.4621 C0            1 RES     
   12792 C0         638.6988  -659.0033   221.6639 C0            1 RES     
   12793 C0         637.8233  -660.2112   221.3477 C0            1 RES     
   12794 H6         640.0840  -651.5211   224.8312 H6            1 RES     
   12795 H6         639.7823  -651.0521   226.4754 H6            1 RES     
   12796 H6         640.5831  -653.4547   227.1398 H6            1 RES     
   12797 H6         642.8075  -652.7376   227.3426 H6            1 RES     
   12798 H6         641.7844  -651.3016   227.5829 H6            1 RES     
   12799 H6         643.5120  -651.9242   225.1163 H6            1 RES     
   12800 H6         643.9308  -650.8779   226.4825 H6            1 RES     
   12801 H6         641.7517  -650.3077   224.4004 H6            1 RES     
   12802 H6         643.3331  -649.5360   224.5645 H6            1 RES     
   12803 H6         641.0146  -649.3026   226.5965 H6            1 RES     
   12804 H6         641.5371  -648.0869   225.3984 H6            1 RES     
   12805 H6         643.2166  -649.1251   227.7783 H6            1 RES     
   12806 H6         643.7601  -647.9076   226.5552 H6            1 RES     
   12807 H6         641.8732  -646.4038   227.2408 H6            1 RES     
   12808 H6         642.9319  -646.8231   228.6410 H6            1 RES     
   12809 H6         641.3321  -647.6353   228.4510 H6            1 RES     
   12810 H6         642.3986  -654.3640   225.6966 H6            1 RES     
   12811 H6         641.8630  -653.3301   224.3208 H6            1 RES     
   12812 H6         640.2385  -655.5050   225.7493 H6            1 RES     
   12813 H6         639.7336  -654.5617   224.2605 H6            1 RES     
   12814 H6         641.6128  -655.5676   223.0071 H6            1 RES     
   12815 H6         642.1282  -656.4721   224.4886 H6            1 RES     
   12816 H6         639.9104  -657.6249   224.5758 H6            1 RES     
   12817 H6         639.3914  -656.7124   223.1029 H6            1 RES     
   12818 H6         641.2400  -657.7994   221.7889 H6            1 RES     
   12819 H6         641.7874  -658.6531   223.2787 H6            1 RES     
   12820 H6         639.6368  -659.8869   223.4226 H6            1 RES     
   12821 H6         640.5091  -660.1734   221.8724 H6            1 RES     
   12822 H6         639.0099  -658.5251   220.7099 H6            1 RES     
   12823 H6         638.0861  -658.2836   222.2454 H6            1 RES     
   12824 H6         636.9325  -659.8828   220.7718 H6            1 RES     
   12825 H6         638.3886  -660.9489   220.7395 H6            1 RES     
   12826 H6         637.4813  -660.6955   222.2873 H6            1 RES     
   12827 C0         637.0679  -664.2424   231.2592 C0            1 RES     
   12828 C1         637.1538  -663.3376   230.0233 C1            1 RES     
   12829 C1         637.1452  -664.0283   228.8617 C1            1 RES     
   12830 S2         637.2133  -663.0267   227.5247 S2            1 RES     
   12831 C1         637.2459  -661.6168   228.4847 C1            1 RES     
   12832 C1         637.2011  -661.9540   229.8424 C1            1 RES     
   12833 C1         637.0721  -665.4106   229.1694 C1            1 RES     
   12834 C1         637.0597  -665.5877   230.5230 C1            1 RES     
   12835 C1         637.0273  -666.9373   230.8886 C1            1 RES     
   12836 C1         637.0261  -667.7817   229.7487 C1            1 RES     
   12837 S2         637.0241  -666.8381   228.3259 S2            1 RES     
   12838 H3         637.2033  -661.2348   230.6495 H3            1 RES     
   12839 H3         637.0186  -667.2685   231.9162 H3            1 RES     
   12840 N4         636.7310  -671.3123   228.4586 N4            1 RES     
   12841 C1         636.6725  -669.9523   228.5379 C1            1 RES     
   12842 C1         637.0756  -669.2679   229.7081 C1            1 RES     
   12843 C1         637.5559  -670.0497   230.7742 C1            1 RES     
   12844 N4         638.0257  -669.5516   231.9458 N4            1 RES     
   12845 S2         638.4829  -670.9152   232.7605 S2            1 RES     
   12846 N4         638.1247  -672.1391   231.7111 N4            1 RES     
   12847 C1         637.6194  -671.4665   230.6491 C1            1 RES     
   12848 C1         637.1929  -672.0819   229.4800 C1            1 RES     
   12849 H5         636.2954  -669.4095   227.6820 H5            1 RES     
   12850 C0         635.6480  -663.9060   231.8565 C0            1 RES     
   12851 C0         634.8449  -664.6655   232.9705 C0            1 RES     
   12852 C0         633.3195  -664.3027   232.8485 C0            1 RES     
   12853 C0         632.7973  -662.9227   233.3475 C0            1 RES     
   12854 C0         633.2446  -661.6388   232.6181 C0            1 RES     
   12855 C0         632.9712  -661.6042   231.1021 C0            1 RES     
   12856 C0         631.4787  -661.6787   230.7541 C0            1 RES     
   12857 C0         631.2676  -661.5826   229.2447 C0            1 RES     
   12858 C0         635.2710  -664.4219   234.4465 C0            1 RES     
   12859 C0         636.4084  -665.3013   234.9577 C0            1 RES     
   12860 C0         636.8179  -664.8829   236.3818 C0            1 RES     
   12861 C0         638.0017  -665.7094   236.9083 C0            1 RES     
   12862 C0         638.5368  -665.1155   238.2230 C0            1 RES     
   12863 C0         639.8441  -665.7666   238.7114 C0            1 RES     
   12864 C0         641.0323  -665.4859   237.7698 C0            1 RES     
   12865 C0         642.3387  -666.0385   238.3309 C0            1 RES     
   12866 H6         635.6733  -662.8389   232.1186 H6            1 RES     
   12867 H6         634.9896  -664.0217   230.9675 H6            1 RES     
   12868 H6         634.8803  -665.7534   232.7393 H6            1 RES     
   12869 H6         632.7773  -665.0494   233.4713 H6            1 RES     
   12870 H6         632.9658  -664.4791   231.8100 H6            1 RES     
   12871 H6         633.0416  -662.8046   234.4241 H6            1 RES     
   12872 H6         631.6889  -662.9635   233.2886 H6            1 RES     
   12873 H6         634.3148  -661.4523   232.8059 H6            1 RES     
   12874 H6         632.7186  -660.7782   233.0860 H6            1 RES     
   12875 H6         633.5090  -662.4250   230.5927 H6            1 RES     
   12876 H6         633.3756  -660.6451   230.7103 H6            1 RES     
   12877 H6         631.0484  -662.6393   231.1055 H6            1 RES     
   12878 H6         630.9407  -660.8393   231.2458 H6            1 RES     
   12879 H6         631.6700  -660.6222   228.8575 H6            1 RES     
   12880 H6         630.1822  -661.6308   229.0160 H6            1 RES     
   12881 H6         631.7777  -662.4248   228.7299 H6            1 RES     
   12882 H6         634.4234  -664.6798   235.1208 H6            1 RES     
   12883 H6         635.4887  -663.3392   234.5801 H6            1 RES     
   12884 H6         636.1002  -666.3694   234.9381 H6            1 RES     
   12885 H6         637.2583  -665.1802   234.2999 H6            1 RES     
   12886 H6         637.1251  -663.8139   236.3368 H6            1 RES     
   12887 H6         635.9599  -664.9739   237.0831 H6            1 RES     
   12888 H6         637.7078  -666.7718   237.0492 H6            1 RES     
   12889 H6         638.7976  -665.6886   236.1537 H6            1 RES     
   12890 H6         638.7304  -664.0270   238.0970 H6            1 RES     
   12891 H6         637.7544  -665.2344   239.0047 H6            1 RES     
   12892 H6         639.7014  -666.8606   238.8417 H6            1 RES     
   12893 H6         640.0835  -665.3243   239.7031 H6            1 RES     
   12894 H6         641.1474  -664.3875   237.6344 H6            1 RES     
   12895 H6         640.8684  -665.9541   236.7814 H6            1 RES     
   12896 H6         643.1671  -665.8102   237.6297 H6            1 RES     
   12897 H6         642.5663  -665.5719   239.3132 H6            1 RES     
   12898 H6         642.2687  -667.1413   238.4544 H6            1 RES     
   12899 C0         638.3035  -663.8675   232.1738 C0            1 RES     
   12900 C0         639.3471  -664.8856   232.7423 C0            1 RES     
   12901 C0         639.9586  -664.3474   234.0826 C0            1 RES     
   12902 C0         640.9950  -663.1967   234.0892 C0            1 RES     
   12903 C0         640.5073  -661.7805   233.7212 C0            1 RES     
   12904 C0         639.3290  -661.2381   234.5574 C0            1 RES     
   12905 C0         639.6155  -661.1625   236.0628 C0            1 RES     
   12906 C0         638.4220  -660.5680   236.8078 C0            1 RES     
   12907 C0         640.5300  -665.2944   231.8161 C0            1 RES     
   12908 C0         640.1446  -666.1344   230.6101 C0            1 RES     
   12909 C0         641.3619  -666.6570   229.8460 C0            1 RES     
   12910 C0         640.8950  -667.5339   228.6785 C0            1 RES     
   12911 C0         642.0826  -668.0885   227.8826 C0            1 RES     
   12912 C0         641.6498  -669.0263   226.7426 C0            1 RES     
   12913 C0         640.8013  -668.3241   225.6706 C0            1 RES     
   12914 C0         640.4578  -669.2781   224.5315 C0            1 RES     
   12915 H6         638.8884  -663.0534   231.7116 H6            1 RES     
   12916 H6         637.8153  -663.3857   233.0354 H6            1 RES     
   12917 H6         638.8039  -665.8101   233.0199 H6            1 RES     
   12918 H6         640.4907  -665.2116   234.5364 H6            1 RES     
   12919 H6         639.1536  -664.0632   234.7811 H6            1 RES     
   12920 H6         641.8580  -663.4635   233.4459 H6            1 RES     
   12921 H6         641.3952  -663.1389   235.1243 H6            1 RES     
   12922 H6         640.2399  -661.7386   232.6518 H6            1 RES     
   12923 H6         641.3684  -661.0887   233.8466 H6            1 RES     
   12924 H6         638.4246  -661.8524   234.4036 H6            1 RES     
   12925 H6         639.1008  -660.2147   234.1862 H6            1 RES     
   12926 H6         639.8045  -662.1783   236.4692 H6            1 RES     
   12927 H6         640.5092  -660.5271   236.2431 H6            1 RES     
   12928 H6         638.2122  -659.5394   236.4433 H6            1 RES     
   12929 H6         638.6424  -660.5223   237.8946 H6            1 RES     
   12930 H6         637.5184  -661.1971   236.6550 H6            1 RES     
   12931 H6         641.2189  -665.9267   232.4198 H6            1 RES     
   12932 H6         641.0893  -664.3950   231.4788 H6            1 RES     
   12933 H6         639.5805  -667.0172   230.9715 H6            1 RES     
   12934 H6         639.5472  -665.5144   229.9219 H6            1 RES     
   12935 H6         641.9603  -665.8016   229.4644 H6            1 RES     
   12936 H6         641.9965  -667.2663   230.5284 H6            1 RES     
   12937 H6         640.2960  -668.3842   229.0747 H6            1 RES     
   12938 H6         640.2509  -666.9164   228.0188 H6            1 RES     
   12939 H6         642.6822  -667.2492   227.4676 H6            1 RES     
   12940 H6         642.7309  -668.6716   228.5732 H6            1 RES     
   12941 H6         641.0841  -669.8859   227.1654 H6            1 RES     
   12942 H6         642.5725  -669.4204   226.2630 H6            1 RES     
   12943 H6         641.3644  -667.4592   225.2578 H6            1 RES     
   12944 H6         639.8481  -667.9593   226.1062 H6            1 RES     
   12945 H6         639.8460  -668.7452   223.7734 H6            1 RES     
   12946 H6         641.3852  -669.6479   224.0449 H6            1 RES     
   12947 H6         639.8752  -670.1426   224.9157 H6            1 RES     
   12948 C0         636.5480  -677.3716   230.3854 C0            1 RES     
   12949 C1         636.9327  -676.0041   229.8064 C1            1 RES     
   12950 C1         637.5826  -676.0948   228.6249 C1            1 RES     
   12951 S2         637.9716  -674.5956   227.9952 S2            1 RES     
   12952 C1         637.2574  -673.7719   229.3074 C1            1 RES     
   12953 C1         636.7220  -674.6875   230.2206 C1            1 RES     
   12954 C1         637.7166  -677.4681   228.2980 C1            1 RES     
   12955 C1         637.1732  -678.2384   229.2855 C1            1 RES     
   12956 C1         637.3104  -679.6078   229.0364 C1            1 RES     
   12957 C1         637.9940  -679.8452   227.8163 C1            1 RES     
   12958 S2         638.3721  -678.3606   227.0629 S2            1 RES     
   12959 H3         636.2103  -674.4112   231.1320 H3            1 RES     
   12960 H3         636.9453  -680.3679   229.7106 H3            1 RES     
   12961 N4         639.1231  -682.4166   225.3004 N4            1 RES     
   12962 C1         638.7151  -681.2412   225.8582 C1            1 RES     
   12963 C1         638.4077  -681.1510   227.2358 C1            1 RES     
   12964 C1         638.5606  -682.3191   228.0042 C1            1 RES     
   12965 N4         638.3552  -682.3941   229.3435 N4            1 RES     
   12966 S2         638.7328  -683.9678   229.6792 S2            1 RES     
   12967 N4         639.1563  -684.5927   228.2104 N4            1 RES     
   12968 C1         639.0059  -683.5244   227.3909 C1            1 RES     
   12969 C1         639.2759  -683.5541   226.0294 C1            1 RES     
   12970 H5         638.6200  -680.3788   225.2128 H5            1 RES     
   12971 C0         634.9740  -677.3742   230.2935 C0            1 RES     
   12972 C0         633.9799  -678.5735   230.4843 C0            1 RES     
   12973 C0         632.6129  -678.2296   229.7870 C0            1 RES     
   12974 C0         631.6167  -677.2368   230.4563 C0            1 RES     
   12975 C0         632.0120  -675.7520   230.5964 C0            1 RES     
   12976 C0         632.4086  -675.0419   229.2877 C0            1 RES     
   12977 C0         631.2701  -674.9849   228.2607 C0            1 RES     
   12978 C0         631.7037  -674.2216   227.0112 C0            1 RES     
   12979 C0         633.6677  -679.0140   231.9430 C0            1 RES     
   12980 C0         634.6534  -680.0033   232.5578 C0            1 RES     
   12981 C0         634.3070  -680.2648   234.0352 C0            1 RES     
   12982 C0         635.3141  -681.2128   234.7050 C0            1 RES     
   12983 C0         635.0823  -681.2656   236.2252 C0            1 RES     
   12984 C0         636.1719  -682.0371   236.9927 C0            1 RES     
   12985 C0         637.5430  -681.3339   236.9399 C0            1 RES     
   12986 C0         638.5774  -682.0506   237.8019 C0            1 RES     
   12987 H6         634.6312  -676.5407   230.9225 H6            1 RES     
   12988 H6         634.8037  -677.0904   229.2315 H6            1 RES     
   12989 H6         634.3676  -679.4381   229.9008 H6            1 RES     
   12990 H6         632.0522  -679.1895   229.7242 H6            1 RES     
   12991 H6         632.7866  -677.9254   228.7325 H6            1 RES     
   12992 H6         631.3450  -677.6127   231.4652 H6            1 RES     
   12993 H6         630.6831  -677.2719   229.8557 H6            1 RES     
   12994 H6         632.8230  -675.6461   231.3358 H6            1 RES     
   12995 H6         631.1493  -675.2082   231.0395 H6            1 RES     
   12996 H6         633.2897  -675.5311   228.8333 H6            1 RES     
   12997 H6         632.7002  -674.0003   229.5466 H6            1 RES     
   12998 H6         630.9733  -676.0102   227.9570 H6            1 RES     
   12999 H6         630.3918  -674.4712   228.7084 H6            1 RES     
   13000 H6         631.9914  -673.1809   227.2731 H6            1 RES     
   13001 H6         630.8639  -674.1858   226.2856 H6            1 RES     
   13002 H6         632.5680  -674.7280   226.5306 H6            1 RES     
   13003 H6         632.7021  -679.5682   231.9606 H6            1 RES     
   13004 H6         633.5438  -678.1040   232.5708 H6            1 RES     
   13005 H6         634.6463  -680.9538   231.9811 H6            1 RES     
   13006 H6         635.6463  -679.5785   232.5016 H6            1 RES     
   13007 H6         634.3404  -679.2844   234.5611 H6            1 RES     
   13008 H6         633.2813  -680.6827   234.1332 H6            1 RES     
   13009 H6         635.2501  -682.2305   234.2633 H6            1 RES     
   13010 H6         636.3249  -680.8349   234.5080 H6            1 RES     
   13011 H6         635.0463  -680.2336   236.6399 H6            1 RES     
   13012 H6         634.0952  -681.7429   236.4123 H6            1 RES     
   13013 H6         636.2519  -683.0747   236.6040 H6            1 RES     
   13014 H6         635.8548  -682.0857   238.0574 H6            1 RES     
   13015 H6         637.4400  -680.2907   237.3128 H6            1 RES     
   13016 H6         637.9307  -681.3082   235.9045 H6            1 RES     
   13017 H6         639.5446  -681.5110   237.7425 H6            1 RES     
   13018 H6         638.2483  -682.0736   238.8629 H6            1 RES     
   13019 H6         638.7260  -683.0913   237.4398 H6            1 RES     
   13020 C0         637.1501  -677.4227   231.8478 C0            1 RES     
   13021 C0         638.0624  -678.5638   232.4086 C0            1 RES     
   13022 C0         637.8997  -678.6760   233.9645 C0            1 RES     
   13023 C0         638.5289  -677.6293   234.9169 C0            1 RES     
   13024 C0         637.9224  -676.2114   234.9369 C0            1 RES     
   13025 C0         636.4091  -676.1328   235.2292 C0            1 RES     
   13026 C0         636.0023  -676.7396   236.5784 C0            1 RES     
   13027 C0         634.5020  -676.5735   236.8118 C0            1 RES     
   13028 C0         639.5863  -678.4824   232.0995 C0            1 RES     
   13029 C0         639.9613  -678.6949   230.6425 C0            1 RES     
   13030 C0         641.4733  -678.7875   230.4333 C0            1 RES     
   13031 C0         641.7696  -679.0520   228.9527 C0            1 RES     
   13032 C0         643.2768  -679.1595   228.6919 C0            1 RES     
   13033 C0         643.6056  -679.4901   227.2260 C0            1 RES     
   13034 C0         643.1525  -678.3986   226.2432 C0            1 RES     
   13035 C0         643.5628  -678.7420   224.8152 C0            1 RES     
   13036 H6         637.6638  -676.4745   232.0832 H6            1 RES     
   13037 H6         636.2433  -677.3939   232.4720 H6            1 RES     
   13038 H6         637.6898  -679.5260   232.0061 H6            1 RES     
   13039 H6         638.3774  -679.6396   234.2461 H6            1 RES     
   13040 H6         636.8324  -678.7568   234.2307 H6            1 RES     
   13041 H6         639.6194  -677.5566   234.7289 H6            1 RES     
   13042 H6         638.4253  -678.0367   235.9456 H6            1 RES     
   13043 H6         638.1329  -675.6965   233.9843 H6            1 RES     
   13044 H6         638.4570  -675.6315   235.7204 H6            1 RES     
   13045 H6         635.8303  -676.6315   234.4322 H6            1 RES     
   13046 H6         636.1241  -675.0576   235.2215 H6            1 RES     
   13047 H6         636.2363  -677.8247   236.5975 H6            1 RES     
   13048 H6         636.5555  -676.2341   237.3990 H6            1 RES     
   13049 H6         634.2290  -675.4964   236.8203 H6            1 RES     
   13050 H6         634.2222  -677.0192   237.7890 H6            1 RES     
   13051 H6         633.9270  -677.0861   236.0103 H6            1 RES     
   13052 H6         640.0821  -679.3035   232.6641 H6            1 RES     
   13053 H6         640.0043  -677.5151   232.4533 H6            1 RES     
   13054 H6         639.5248  -679.6583   230.3116 H6            1 RES     
   13055 H6         639.5842  -677.8444   230.0512 H6            1 RES     
   13056 H6         641.9548  -677.8386   230.7545 H6            1 RES     
   13057 H6         641.8829  -679.6248   231.0423 H6            1 RES     
   13058 H6         641.2801  -680.0031   228.6447 H6            1 RES     
   13059 H6         641.3402  -678.2179   228.3602 H6            1 RES     
   13060 H6         643.7774  -678.2099   228.9813 H6            1 RES     
   13061 H6         643.6886  -679.9770   229.3240 H6            1 RES     
   13062 H6         643.1362  -680.4606   226.9514 H6            1 RES     
   13063 H6         644.7090  -679.6036   227.1463 H6            1 RES     
   13064 H6         643.6142  -677.4279   226.5264 H6            1 RES     
   13065 H6         642.0481  -678.2921   226.2623 H6            1 RES     
   13066 H6         643.2235  -677.9379   224.1286 H6            1 RES     
   13067 H6         644.6675  -678.8305   224.7418 H6            1 RES     
   13068 H6         643.0962  -679.6998   224.5002 H6            1 RES     
   13069 C0         639.5854  -688.6947   224.3877 C0            1 RES     
   13070 C1         639.8423  -687.2048   224.6476 C1            1 RES     
   13071 C1         640.9332  -686.7365   224.0016 C1            1 RES     
   13072 S2         641.1840  -685.1062   224.2745 S2            1 RES     
   13073 C1         639.8073  -684.9815   225.2742 C1            1 RES     
   13074 C1         639.1694  -686.2230   225.3774 C1            1 RES     
   13075 C1         641.5155  -687.8101   223.2812 C1            1 RES     
   13076 C1         640.8046  -688.9559   223.4948 C1            1 RES     
   13077 C1         641.3557  -690.0611   222.8383 C1            1 RES     
   13078 C1         642.5274  -689.7055   222.1221 C1            1 RES     
   13079 S2         642.8247  -688.0325   222.2870 S2            1 RES     
   13080 H3         638.2697  -686.4005   225.9501 H3            1 RES     
   13081 H3         640.9312  -691.0521   222.8968 H3            1 RES     
   13082 N4         645.1931  -690.8348   219.7064 N4            1 RES     
   13083 C1         644.3204  -690.0483   220.3987 C1            1 RES     
   13084 C1         643.4456  -690.5978   221.3646 C1            1 RES     
   13085 C1         643.5306  -691.9833   221.5915 C1            1 RES     
   13086 N4         642.8004  -692.6605   222.5133 N4            1 RES     
   13087 S2         643.3618  -694.2069   222.3537 S2            1 RES     
   13088 N4         644.5039  -694.0902   221.1665 N4            1 RES     
   13089 C1         644.4665  -692.7705   220.8624 C1            1 RES     
   13090 C1         645.2875  -692.1752   219.9142 C1            1 RES     
   13091 H5         644.3064  -688.9896   220.1785 H5            1 RES     
   13092 C0         638.2499  -688.6913   223.5496 C0            1 RES     
   13093 C0         637.5855  -689.8697   222.7539 C0            1 RES     
   13094 C0         636.6055  -689.2790   221.6751 C0            1 RES     
   13095 C0         635.2150  -688.7191   222.0986 C0            1 RES     
   13096 C0         635.1480  -687.4496   222.9728 C0            1 RES     
   13097 C0         635.8813  -686.2156   222.4127 C0            1 RES     
   13098 C0         635.3091  -685.7264   221.0757 C0            1 RES     
   13099 C0         636.0370  -684.4708   220.6005 C0            1 RES     
   13100 C0         636.7981  -690.9292   223.5767 C0            1 RES     
   13101 C0         637.6333  -692.0668   224.1568 C0            1 RES     
   13102 C0         636.7657  -692.9760   225.0464 C0            1 RES     
   13103 C0         637.5865  -694.1011   225.6960 C0            1 RES     
   13104 C0         636.7511  -694.8408   226.7554 C0            1 RES     
   13105 C0         637.5605  -695.8510   227.5897 C0            1 RES     
   13106 C0         638.6137  -695.1688   228.4856 C0            1 RES     
   13107 C0         639.3218  -696.1740   229.3884 C0            1 RES     
   13108 H6         637.4853  -688.2405   224.1976 H6            1 RES     
   13109 H6         638.4846  -687.9620   222.7432 H6            1 RES     
   13110 H6         638.3774  -690.3679   222.1515 H6            1 RES     
   13111 H6         636.3705  -690.1192   220.9835 H6            1 RES     
   13112 H6         637.1326  -688.5269   221.0497 H6            1 RES     
   13113 H6         634.6387  -689.5167   222.6130 H6            1 RES     
   13114 H6         634.6627  -688.5001   221.1602 H6            1 RES     
   13115 H6         635.5174  -687.6710   223.9877 H6            1 RES     
   13116 H6         634.0769  -687.1848   223.1106 H6            1 RES     
   13117 H6         636.9603  -686.4261   222.2959 H6            1 RES     
   13118 H6         635.7786  -685.3972   223.1588 H6            1 RES     
   13119 H6         635.4225  -686.5099   220.2981 H6            1 RES     
   13120 H6         634.2297  -685.4908   221.1979 H6            1 RES     
   13121 H6         635.9298  -683.6548   221.3468 H6            1 RES     
   13122 H6         635.6029  -684.1300   219.6370 H6            1 RES     
   13123 H6         637.1165  -684.6854   220.4485 H6            1 RES     
   13124 H6         636.0788  -691.4533   222.9076 H6            1 RES     
   13125 H6         636.2070  -690.4046   224.3596 H6            1 RES     
   13126 H6         638.0979  -692.6537   223.3346 H6            1 RES     
   13127 H6         638.4237  -691.6399   224.7590 H6            1 RES     
   13128 H6         636.3386  -692.3388   225.8531 H6            1 RES     
   13129 H6         635.9273  -693.4163   224.4638 H6            1 RES     
   13130 H6         637.9600  -694.8102   224.9262 H6            1 RES     
   13131 H6         638.4634  -693.6520   226.1784 H6            1 RES     
   13132 H6         636.2983  -694.1091   227.4609 H6            1 RES     
   13133 H6         635.9228  -695.3736   226.2385 H6            1 RES     
   13134 H6         638.0421  -696.5986   226.9238 H6            1 RES     
   13135 H6         636.8431  -696.3831   228.2520 H6            1 RES     
   13136 H6         638.1174  -694.4096   229.1301 H6            1 RES     
   13137 H6         639.3859  -694.6688   227.8718 H6            1 RES     
   13138 H6         640.0637  -695.6440   230.0198 H6            1 RES     
   13139 H6         638.5893  -696.6818   230.0518 H6            1 RES     
   13140 H6         639.8527  -696.9348   228.7754 H6            1 RES     
   13141 C0         639.5027  -689.3878   225.8077 C0            1 RES     
   13142 C0         640.3329  -690.6380   226.2513 C0            1 RES     
   13143 C0         639.5569  -691.4453   227.3494 C0            1 RES     
   13144 C0         639.4534  -690.9284   228.8056 C0            1 RES     
   13145 C0         638.5780  -689.6870   229.0730 C0            1 RES     
   13146 C0         637.1131  -689.7837   228.5971 C0            1 RES     
   13147 C0         636.3292  -690.9440   229.2238 C0            1 RES     
   13148 C0         634.8798  -690.9358   228.7416 C0            1 RES     
   13149 C0         641.7761  -690.3909   226.7808 C0            1 RES     
   13150 C0         642.7728  -689.9129   225.7384 C0            1 RES     
   13151 C0         644.2046  -689.8664   226.2735 C0            1 RES     
   13152 C0         645.1549  -689.4259   225.1541 C0            1 RES     
   13153 C0         646.6080  -689.3695   225.6407 C0            1 RES     
   13154 C0         647.5961  -688.9938   224.5233 C0            1 RES     
   13155 C0         647.3581  -687.5865   223.9528 C0            1 RES     
   13156 C0         648.4044  -687.2376   222.8997 C0            1 RES     
   13157 H6         639.6262  -688.6371   226.6075 H6            1 RES     
   13158 H6         638.4386  -689.6651   225.8677 H6            1 RES     
   13159 H6         640.4069  -691.3224   225.3837 H6            1 RES     
   13160 H6         640.0836  -692.4209   227.4311 H6            1 RES     
   13161 H6         638.5305  -691.6621   227.0083 H6            1 RES     
   13162 H6         640.4686  -690.7537   229.2162 H6            1 RES     
   13163 H6         639.0230  -691.7592   229.4052 H6            1 RES     
   13164 H6         639.0440  -688.7924   228.6265 H6            1 RES     
   13165 H6         638.5746  -689.5121   230.1709 H6            1 RES     
   13166 H6         637.0644  -689.8812   227.4984 H6            1 RES     
   13167 H6         636.6119  -688.8280   228.8668 H6            1 RES     
   13168 H6         636.7834  -691.9149   228.9344 H6            1 RES     
   13169 H6         636.3440  -690.8519   230.3311 H6            1 RES     
   13170 H6         634.3817  -689.9855   229.0307 H6            1 RES     
   13171 H6         634.3265  -691.7815   229.2004 H6            1 RES     
   13172 H6         634.8396  -691.0435   227.6360 H6            1 RES     
   13173 H6         642.1647  -691.3670   227.1483 H6            1 RES     
   13174 H6         641.7612  -689.6789   227.6343 H6            1 RES     
   13175 H6         642.7609  -690.6322   224.8954 H6            1 RES     
   13176 H6         642.4922  -688.8959   225.4190 H6            1 RES     
   13177 H6         644.2634  -689.1545   227.1251 H6            1 RES     
   13178 H6         644.5029  -690.8790   226.6275 H6            1 RES     
   13179 H6         645.0840  -690.1458   224.3081 H6            1 RES     
   13180 H6         644.8330  -688.4241   224.8021 H6            1 RES     
   13181 H6         646.6967  -688.6422   226.4769 H6            1 RES     
   13182 H6         646.8936  -690.3747   226.0216 H6            1 RES     
   13183 H6         647.5333  -689.7457   223.7057 H6            1 RES     
   13184 H6         648.6209  -689.0338   224.9533 H6            1 RES     
   13185 H6         647.4105  -686.8386   224.7734 H6            1 RES     
   13186 H6         646.3598  -687.5254   223.4720 H6            1 RES     
   13187 H6         648.2084  -686.2179   222.5061 H6            1 RES     
   13188 H6         649.4218  -687.2581   223.3449 H6            1 RES     
   13189 H6         648.3582  -687.9599   222.0568 H6            1 RES     
   13190 C0         647.4767  -696.0092   216.7958 C0            1 RES     
   13191 C1         647.2367  -694.7924   217.6987 C1            1 RES     
   13192 C1         648.3527  -694.0579   217.9027 C1            1 RES     
   13193 S2         648.0684  -692.7219   218.8669 S2            1 RES     
   13194 C1         646.4116  -693.0942   219.0300 C1            1 RES     
   13195 C1         646.1056  -694.2624   218.3224 C1            1 RES     
   13196 C1         649.4224  -694.6761   217.2069 C1            1 RES     
   13197 C1         648.9830  -695.8105   216.5873 C1            1 RES     
   13198 C1         650.0059  -696.4865   215.9144 C1            1 RES     
   13199 C1         651.2491  -695.8188   216.0590 C1            1 RES     
   13200 S2         651.0411  -694.3949   216.9776 S2            1 RES     
   13201 H3         645.1187  -694.7001   218.2660 H3            1 RES     
   13202 H3         649.8457  -697.4062   215.3720 H3            1 RES     
   13203 N4         654.8720  -695.6724   215.0246 N4            1 RES     
   13204 C1         653.6287  -695.3042   215.4466 C1            1 RES     
   13205 C1         652.5850  -696.2508   215.5673 C1            1 RES     
   13206 C1         652.8922  -697.5869   215.2526 C1            1 RES     
   13207 N4         652.0239  -698.6242   215.3598 N4            1 RES     
   13208 S2         652.9496  -699.9180   214.9116 S2            1 RES     
   13209 N4         654.4237  -699.2510   214.5804 N4            1 RES     
   13210 C1         654.2065  -697.9377   214.8323 C1            1 RES     
   13211 C1         655.1848  -696.9594   214.7169 C1            1 RES     
   13212 H5         653.4583  -694.2610   215.6751 H5            1 RES     
   13213 C0         646.6650  -695.6577   215.4907 C0            1 RES     
   13214 C0         646.7024  -696.3637   214.0895 C0            1 RES     
   13215 C0         646.1638  -695.3715   212.9946 C0            1 RES     
   13216 C0         644.6362  -695.0956   212.8668 C0            1 RES     
   13217 C0         643.9047  -694.3605   214.0092 C0            1 RES     
   13218 C0         644.4899  -692.9902   214.4018 C0            1 RES     
   13219 C0         644.4413  -691.9625   213.2634 C0            1 RES     
   13220 C0         644.9806  -690.6115   213.7283 C0            1 RES     
   13221 C0         645.9170  -697.6984   213.9439 C0            1 RES     
   13222 C0         646.6708  -698.9560   214.3664 C0            1 RES     
   13223 C0         645.7512  -700.1888   214.2922 C0            1 RES     
   13224 C0         646.4599  -701.4669   214.7671 C0            1 RES     
   13225 C0         645.4562  -702.6246   214.9070 C0            1 RES     
   13226 C0         646.0492  -703.8841   215.5655 C0            1 RES     
   13227 C0         646.4268  -703.6569   217.0430 C0            1 RES     
   13228 C0         646.9010  -704.9453   217.7079 C0            1 RES     
   13229 H6         645.6146  -695.5662   215.8011 H6            1 RES     
   13230 H6         647.0390  -694.6374   215.2533 H6            1 RES     
   13231 H6         647.7684  -696.5175   213.8098 H6            1 RES     
   13232 H6         646.4518  -695.8133   212.0141 H6            1 RES     
   13233 H6         646.7111  -694.4061   213.0501 H6            1 RES     
   13234 H6         644.1039  -696.0526   212.6828 H6            1 RES     
   13235 H6         644.5000  -694.4886   211.9466 H6            1 RES     
   13236 H6         643.8493  -695.0084   214.8994 H6            1 RES     
   13237 H6         642.8476  -694.2112   213.6987 H6            1 RES     
   13238 H6         645.5322  -693.1005   214.7535 H6            1 RES     
   13239 H6         643.8889  -692.6003   215.2525 H6            1 RES     
   13240 H6         645.0567  -692.3069   212.4066 H6            1 RES     
   13241 H6         643.3904  -691.8324   212.9255 H6            1 RES     
   13242 H6         644.3761  -690.2239   214.5761 H6            1 RES     
   13243 H6         644.9294  -689.8819   212.8929 H6            1 RES     
   13244 H6         646.0392  -690.7094   214.0511 H6            1 RES     
   13245 H6         645.6972  -697.8796   212.8675 H6            1 RES     
   13246 H6         644.9435  -697.5982   214.4729 H6            1 RES     
   13247 H6         647.5652  -699.0969   213.7212 H6            1 RES     
   13248 H6         647.0042  -698.8296   215.3875 H6            1 RES     
   13249 H6         644.8841  -699.9951   214.9629 H6            1 RES     
   13250 H6         645.3708  -700.3370   213.2581 H6            1 RES     
   13251 H6         647.2816  -701.7426   214.0715 H6            1 RES     
   13252 H6         646.9145  -701.2646   215.7447 H6            1 RES     
   13253 H6         644.5871  -702.3016   215.5223 H6            1 RES     
   13254 H6         645.0786  -702.8848   213.8936 H6            1 RES     
   13255 H6         646.9303  -704.2385   214.9892 H6            1 RES     
   13256 H6         645.2677  -704.6744   215.5313 H6            1 RES     
   13257 H6         645.5391  -703.2828   217.5999 H6            1 RES     
   13258 H6         647.2432  -702.9160   217.1295 H6            1 RES     
   13259 H6         647.1552  -704.7412   218.7681 H6            1 RES     
   13260 H6         646.1001  -705.7147   217.6766 H6            1 RES     
   13261 H6         647.8059  -705.3343   217.1920 H6            1 RES     
   13262 C0         646.9663  -697.2712   217.6024 C0            1 RES     
   13263 C0         647.8004  -698.5675   217.8721 C0            1 RES     
   13264 C0         646.8481  -699.8017   218.0451 C0            1 RES     
   13265 C0         646.0166  -700.0016   219.3363 C0            1 RES     
   13266 C0         644.8433  -699.0357   219.5990 C0            1 RES     
   13267 C0         643.7885  -698.9400   218.4764 C0            1 RES     
   13268 C0         643.1134  -700.2760   218.1398 C0            1 RES     
   13269 C0         642.0499  -700.0837   217.0604 C0            1 RES     
   13270 C0         648.7777  -698.5537   219.0840 C0            1 RES     
   13271 C0         649.9775  -697.6334   218.9350 C0            1 RES     
   13272 C0         650.9901  -697.8012   220.0685 C0            1 RES     
   13273 C0         652.1908  -696.8806   219.8221 C0            1 RES     
   13274 C0         653.2404  -697.0171   220.9318 C0            1 RES     
   13275 C0         654.4888  -696.1543   220.6803 C0            1 RES     
   13276 C0         654.1885  -694.6470   220.6595 C0            1 RES     
   13277 C0         655.4668  -693.8359   220.4764 C0            1 RES     
   13278 H6         646.5562  -696.9607   218.5790 H6            1 RES     
   13279 H6         646.0771  -697.5699   217.0254 H6            1 RES     
   13280 H6         648.3961  -698.7837   216.9637 H6            1 RES     
   13281 H6         647.5055  -700.6964   217.9893 H6            1 RES     
   13282 H6         646.1478  -699.8641   217.1952 H6            1 RES     
   13283 H6         646.6878  -700.0083   220.2191 H6            1 RES     
   13284 H6         645.5835  -701.0233   219.2772 H6            1 RES     
   13285 H6         645.2273  -698.0254   219.8199 H6            1 RES     
   13286 H6         644.3327  -699.3762   220.5259 H6            1 RES     
   13287 H6         644.2356  -698.5313   217.5533 H6            1 RES     
   13288 H6         643.0090  -698.2214   218.8126 H6            1 RES     
   13289 H6         643.8638  -701.0004   217.7594 H6            1 RES     
   13290 H6         642.6342  -700.6942   219.0511 H6            1 RES     
   13291 H6         641.2661  -699.3785   217.4113 H6            1 RES     
   13292 H6         641.5727  -701.0578   216.8254 H6            1 RES     
   13293 H6         642.5097  -699.6807   216.1321 H6            1 RES     
   13294 H6         649.1932  -699.5813   219.1850 H6            1 RES     
   13295 H6         648.2331  -698.3052   220.0207 H6            1 RES     
   13296 H6         650.4960  -697.8939   217.9908 H6            1 RES     
   13297 H6         649.6262  -696.5886   218.9401 H6            1 RES     
   13298 H6         650.5107  -697.5502   221.0394 H6            1 RES     
   13299 H6         651.3411  -698.8573   220.1010 H6            1 RES     
   13300 H6         652.6593  -697.1415   218.8467 H6            1 RES     
   13301 H6         651.8210  -695.8355   219.7757 H6            1 RES     
   13302 H6         652.7900  -696.7447   221.9111 H6            1 RES     
   13303 H6         653.5671  -698.0792   220.9820 H6            1 RES     
   13304 H6         654.9597  -696.4565   219.7187 H6            1 RES     
   13305 H6         655.2110  -696.3610   221.5003 H6            1 RES     
   13306 H6         653.7082  -694.3500   221.6169 H6            1 RES     
   13307 H6         653.5060  -694.3979   219.8207 H6            1 RES     
   13308 H6         655.2203  -692.7531   220.4654 H6            1 RES     
   13309 H6         656.1715  -694.0322   221.3122 H6            1 RES     
   13310 H6         655.9559  -694.0997   219.5145 H6            1 RES     
   13311 C0         659.3326  -698.9178   211.8574 C0            1 RES     
   13312 C1         658.4504  -698.2466   212.9179 C1            1 RES     
   13313 C1         659.1642  -697.6585   213.9033 C1            1 RES     
   13314 S2         658.1890  -696.9098   215.0364 S2            1 RES     
   13315 C1         656.7607  -697.3533   214.2155 C1            1 RES     
   13316 C1         657.0714  -698.0820   213.0616 C1            1 RES     
   13317 C1         660.5411  -697.8706   213.6392 C1            1 RES     
   13318 C1         660.6899  -698.6120   212.5025 C1            1 RES     
   13319 C1         662.0299  -698.8871   212.2113 C1            1 RES     
   13320 C1         662.8959  -698.3288   213.1863 C1            1 RES     
   13321 S2         661.9858  -697.4793   214.3545 S2            1 RES     
   13322 H3         656.3372  -698.4693   212.3691 H3            1 RES     
   13323 H3         662.3388  -699.4655   211.3536 H3            1 RES     
   13324 N4         666.4654  -697.6478   214.1922 N4            1 RES     
   13325 C1         665.1126  -697.5386   214.0608 C1            1 RES     
   13326 C1         664.3744  -698.4611   213.2834 C1            1 RES     
   13327 C1         665.0940  -699.5031   212.6710 C1            1 RES     
   13328 N4         664.5364  -700.4963   211.9333 N4            1 RES     
   13329 S2         665.8431  -701.4260   211.5331 S2            1 RES     
   13330 N4         667.1129  -700.6479   212.2468 N4            1 RES     
   13331 C1         666.5041  -699.5958   212.8448 C1            1 RES     
   13332 C1         667.1752  -698.6490   213.6069 C1            1 RES     
   13333 H5         664.6187  -696.7157   214.5592 H5            1 RES     
   13334 C0         659.0940  -698.0328   210.5746 C0            1 RES     
   13335 C0         659.8893  -698.0278   209.2217 C0            1 RES     
   13336 C0         659.6478  -696.6604   208.4834 C0            1 RES     
   13337 C0         658.3020  -696.3914   207.7470 C0            1 RES     
   13338 C0         657.0032  -696.2692   208.5709 C0            1 RES     
   13339 C0         657.0220  -695.2116   209.6913 C0            1 RES     
   13340 C0         657.2186  -693.7816   209.1708 C0            1 RES     
   13341 C0         657.1713  -692.7749   210.3182 C0            1 RES     
   13342 C0         659.5823  -699.1699   208.2113 C0            1 RES     
   13343 C0         660.3604  -700.4651   208.4246 C0            1 RES     
   13344 C0         659.8814  -701.5517   207.4443 C0            1 RES     
   13345 C0         660.6028  -702.8899   207.6687 C0            1 RES     
   13346 C0         659.9417  -704.0083   206.8444 C0            1 RES     
   13347 C0         660.4795  -705.4155   207.1638 C0            1 RES     
   13348 C0         660.1281  -705.8725   208.5938 C0            1 RES     
   13349 C0         660.5664  -707.3110   208.8494 C0            1 RES     
   13350 H6         658.0229  -698.1155   210.3429 H6            1 RES     
   13351 H6         659.2790  -697.0071   210.9633 H6            1 RES     
   13352 H6         660.9760  -698.0141   209.4611 H6            1 RES     
   13353 H6         660.4208  -696.6043   207.6841 H6            1 RES     
   13354 H6         659.8730  -695.8121   209.1650 H6            1 RES     
   13355 H6         658.1425  -697.1736   206.9752 H6            1 RES     
   13356 H6         658.4293  -695.4372   207.1930 H6            1 RES     
   13357 H6         656.7308  -697.2508   208.9925 H6            1 RES     
   13358 H6         656.1759  -696.0198   207.8711 H6            1 RES     
   13359 H6         657.8095  -695.4452   210.4312 H6            1 RES     
   13360 H6         656.0431  -695.2624   210.2167 H6            1 RES     
   13361 H6         658.2019  -693.6872   208.6651 H6            1 RES     
   13362 H6         656.4130  -693.5368   208.4451 H6            1 RES     
   13363 H6         656.1911  -692.8265   210.8388 H6            1 RES     
   13364 H6         657.3078  -691.7478   209.9192 H6            1 RES     
   13365 H6         657.9824  -692.9840   211.0482 H6            1 RES     
   13366 H6         659.8904  -698.8497   207.1904 H6            1 RES     
   13367 H6         658.4834  -699.3420   208.1918 H6            1 RES     
   13368 H6         661.4492  -700.2785   208.2988 H6            1 RES     
   13369 H6         660.1881  -700.8065   209.4362 H6            1 RES     
   13370 H6         658.7932  -701.7021   207.6236 H6            1 RES     
   13371 H6         660.0234  -701.2249   206.3911 H6            1 RES     
   13372 H6         661.6815  -702.8024   207.4162 H6            1 RES     
   13373 H6         660.5368  -703.1412   208.7344 H6            1 RES     
   13374 H6         658.8444  -704.0183   207.0291 H6            1 RES     
   13375 H6         660.1039  -703.7907   205.7657 H6            1 RES     
   13376 H6         661.5783  -705.4508   207.0034 H6            1 RES     
   13377 H6         659.9991  -706.1225   206.4526 H6            1 RES     
   13378 H6         659.0273  -705.8110   208.7434 H6            1 RES     
   13379 H6         660.6285  -705.2323   209.3440 H6            1 RES     
   13380 H6         660.2899  -707.6027   209.8831 H6            1 RES     
   13381 H6         660.0629  -708.0012   208.1390 H6            1 RES     
   13382 H6         661.6685  -707.4039   208.7346 H6            1 RES     
   13383 C0         658.8443  -700.4194   211.7556 C0            1 RES     
   13384 C0         659.7666  -701.6782   211.8730 C0            1 RES     
   13385 C0         659.1545  -702.8786   211.0704 C0            1 RES     
   13386 C0         657.9274  -703.6597   211.6019 C0            1 RES     
   13387 C0         656.5612  -702.9440   211.6100 C0            1 RES     
   13388 C0         656.0936  -702.3752   210.2537 C0            1 RES     
   13389 C0         655.9642  -703.4295   209.1466 C0            1 RES     
   13390 C0         655.4476  -702.7943   207.8572 C0            1 RES     
   13391 C0         660.1026  -702.1916   213.3040 C0            1 RES     
   13392 C0         660.9952  -701.2762   214.1249 C0            1 RES     
   13393 C0         661.4386  -701.9153   215.4415 C0            1 RES     
   13394 C0         662.3734  -700.9557   216.1866 C0            1 RES     
   13395 C0         662.8517  -701.5552   217.5145 C0            1 RES     
   13396 C0         663.8440  -700.6437   218.2565 C0            1 RES     
   13397 C0         663.2323  -699.2972   218.6751 C0            1 RES     
   13398 C0         664.2339  -698.4620   219.4654 C0            1 RES     
   13399 H6         657.9975  -700.5936   212.4421 H6            1 RES     
   13400 H6         658.3833  -700.4451   210.7558 H6            1 RES     
   13401 H6         660.7240  -701.4466   211.3667 H6            1 RES     
   13402 H6         659.9652  -703.6361   211.0012 H6            1 RES     
   13403 H6         658.9184  -702.5659   210.0392 H6            1 RES     
   13404 H6         658.1405  -704.0495   212.6180 H6            1 RES     
   13405 H6         657.8169  -704.5538   210.9514 H6            1 RES     
   13406 H6         656.5628  -702.1344   212.3592 H6            1 RES     
   13407 H6         655.8025  -703.6784   211.9576 H6            1 RES     
   13408 H6         656.7788  -701.5831   209.9044 H6            1 RES     
   13409 H6         655.0989  -701.9043   210.4155 H6            1 RES     
   13410 H6         656.9534  -703.8863   208.9339 H6            1 RES     
   13411 H6         655.2581  -704.2254   209.4674 H6            1 RES     
   13412 H6         654.4463  -702.3420   208.0232 H6            1 RES     
   13413 H6         655.3620  -703.5675   207.0656 H6            1 RES     
   13414 H6         656.1477  -702.0046   207.5078 H6            1 RES     
   13415 H6         660.6669  -703.1440   213.1892 H6            1 RES     
   13416 H6         659.1701  -702.4059   213.8698 H6            1 RES     
   13417 H6         661.9110  -701.0697   213.5359 H6            1 RES     
   13418 H6         660.4379  -700.3549   214.3608 H6            1 RES     
   13419 H6         660.5479  -702.1415   216.0668 H6            1 RES     
   13420 H6         661.9825  -702.8637   215.2306 H6            1 RES     
   13421 H6         663.2588  -700.7365   215.5486 H6            1 RES     
   13422 H6         661.8216  -700.0112   216.3732 H6            1 RES     
   13423 H6         661.9777  -701.7655   218.1687 H6            1 RES     
   13424 H6         663.3682  -702.5174   217.3034 H6            1 RES     
   13425 H6         664.7355  -700.4675   217.6146 H6            1 RES     
   13426 H6         664.1760  -701.1823   219.1710 H6            1 RES     
   13427 H6         662.3356  -699.4763   219.3070 H6            1 RES     
   13428 H6         662.9328  -698.7114   217.7814 H6            1 RES     
   13429 H6         663.7660  -697.4972   219.7541 H6            1 RES     
   13430 H6         664.5414  -698.9989   220.3878 H6            1 RES     
   13431 H6         665.1324  -698.2511   218.8469 H6            1 RES     
   13432 C0         672.4785  -699.0074   212.6251 C0            1 RES     
   13433 C1         671.0979  -698.9087   213.2868 C1            1 RES     
   13434 C1         671.1634  -698.8136   214.6334 C1            1 RES     
   13435 S2         669.6524  -698.6807   215.3367 S2            1 RES     
   13436 C1         668.8585  -698.7375   213.8277 C1            1 RES     
   13437 C1         669.7930  -698.8583   212.7928 C1            1 RES     
   13438 C1         672.5289  -698.8519   215.0137 C1            1 RES     
   13439 C1         673.3177  -698.9955   213.9087 C1            1 RES     
   13440 C1         674.6774  -699.0785   214.2255 C1            1 RES     
   13441 C1         674.8873  -699.0018   215.6263 C1            1 RES     
   13442 S2         673.3943  -698.7934   216.4277 S2            1 RES     
   13443 H3         669.5377  -698.9072   211.7435 H3            1 RES     
   13444 H3         675.4489  -699.1993   213.4800 H3            1 RES     
   13445 N4         677.4169  -698.7680   218.4126 N4            1 RES     
   13446 C1         676.2649  -698.6421   217.6941 C1            1 RES     
   13447 C1         676.1693  -699.1300   216.3701 C1            1 RES     
   13448 C1         677.3056  -699.7656   215.8379 C1            1 RES     
   13449 N4         677.3677  -700.3304   214.6056 N4            1 RES     
   13450 S2         678.9001  -700.9485   214.5684 S2            1 RES     
   13451 N4         679.5216  -700.5485   216.0452 N4            1 RES     
   13452 C1         678.4857  -699.8947   216.6239 C1            1 RES     
   13453 C1         678.5235  -699.3798   217.9127 C1            1 RES     
   13454 H5         675.4262  -698.1451   218.1621 H5            1 RES     
   13455 C0         672.6043  -697.6437   211.8440 C0            1 RES     
   13456 C0         673.8723  -697.0093   211.1712 C0            1 RES     
   13457 C0         673.6497  -695.4617   211.0017 C0            1 RES     
   13458 C0         672.7226  -694.9196   209.8736 C0            1 RES     
   13459 C0         671.2091  -695.2129   209.9357 C0            1 RES     
   13460 C0         670.4985  -694.7761   211.2313 C0            1 RES     
   13461 C0         670.5514  -693.2613   211.4697 C0            1 RES     
   13462 C0         669.7836  -692.8836   212.7346 C0            1 RES     
   13463 C0         674.3044  -697.5777   209.7894 C0            1 RES     
   13464 C0         675.2015  -698.8112   209.8357 C0            1 RES     
   13465 C0         675.4576  -699.3477   208.4152 C0            1 RES     
   13466 C0         676.3106  -700.6259   208.4262 C0            1 RES     
   13467 C0         676.3488  -701.2655   207.0273 C0            1 RES     
   13468 C0         677.0175  -702.6523   206.9969 C0            1 RES     
   13469 C0         676.2120  -703.7145   207.7717 C0            1 RES     
   13470 C0         676.8284  -705.1026   207.6308 C0            1 RES     
   13471 H6         671.7865  -697.6371   211.1097 H6            1 RES     
   13472 H6         672.3571  -696.9007   212.6341 H6            1 RES     
   13473 H6         674.7167  -697.0805   211.8925 H6            1 RES     
   13474 H6         674.6511  -695.0326   210.7720 H6            1 RES     
   13475 H6         673.3555  -695.0085   211.9727 H6            1 RES     
   13476 H6         673.0969  -695.2717   208.8893 H6            1 RES     
   13477 H6         672.8423  -693.8154   209.8687 H6            1 RES     
   13478 H6         671.0254  -696.2850   209.7558 H6            1 RES     
   13479 H6         670.7242  -694.6929   209.0808 H6            1 RES     
   13480 H6         670.9279  -695.3010   212.1044 H6            1 RES     
   13481 H6         669.4323  -695.0813   211.1481 H6            1 RES     
   13482 H6         671.6027  -692.9260   211.5873 H6            1 RES     
   13483 H6         670.0975  -692.7332   210.6032 H6            1 RES     
   13484 H6         668.7185  -693.1873   212.6467 H6            1 RES     
   13485 H6         669.8281  -691.7842   212.8838 H6            1 RES     
   13486 H6         670.2320  -693.3816   213.6208 H6            1 RES     
   13487 H6         674.9310  -696.8236   209.2616 H6            1 RES     
   13488 H6         673.3936  -697.7474   209.1736 H6            1 RES     
   13489 H6         676.1618  -698.5632   210.3381 H6            1 RES     
   13490 H6         674.7028  -699.5771   210.4139 H6            1 RES     
   13491 H6         674.4665  -699.5878   207.9690 H6            1 RES     
   13492 H6         675.9510  -698.5768   207.7840 H6            1 RES     
   13493 H6         677.3394  -700.4091   208.7861 H6            1 RES     
   13494 H6         675.8602  -701.3334   209.1332 H6            1 RES     
   13495 H6         675.3141  -701.3830   206.6350 H6            1 RES     
   13496 H6         676.8967  -700.5799   206.3439 H6            1 RES     
   13497 H6         678.0540  -702.5862   207.3915 H6            1 RES     
   13498 H6         677.0678  -702.9721   205.9331 H6            1 RES     
   13499 H6         675.1722  -703.7524   207.3777 H6            1 RES     
   13500 H6         676.1786  -703.4715   208.8501 H6            1 RES     
   13501 H6         676.2172  -705.8365   208.1949 H6            1 RES     
   13502 H6         676.8541  -705.4083   206.5629 H6            1 RES     
   13503 H6         677.8620  -705.1084   208.0406 H6            1 RES     
   13504 C0         672.4519  -700.3115   211.7293 C0            1 RES     
   13505 C0         673.5070  -701.4658   211.7845 C0            1 RES     
   13506 C0         673.5984  -702.1871   210.3948 C0            1 RES     
   13507 C0         672.4863  -703.1520   209.9144 C0            1 RES     
   13508 C0         671.1192  -702.5486   209.5325 C0            1 RES     
   13509 C0         671.1513  -701.4388   208.4605 C0            1 RES     
   13510 C0         671.7588  -701.8813   207.1230 C0            1 RES     
   13511 C0         671.7041  -700.7436   206.1053 C0            1 RES     
   13512 C0         673.3151  -702.5630   212.8724 C0            1 RES     
   13513 C0         673.5289  -702.0976   214.3029 C0            1 RES     
   13514 C0         673.5091  -703.2527   215.3049 C0            1 RES     
   13515 C0         673.7814  -702.7127   216.7135 C0            1 RES     
   13516 C0         673.7780  -703.8368   217.7564 C0            1 RES     
   13517 C0         674.1133  -703.3369   219.1720 C0            1 RES     
   13518 C0         673.0811  -702.3396   219.7220 C0            1 RES     
   13519 C0         673.4221  -701.9294   221.1506 C0            1 RES     
   13520 H6         671.4621  -700.7965   211.7891 H6            1 RES     
   13521 H6         672.4798  -699.8928   210.7111 H6            1 RES     
   13522 H6         674.5034  -701.0085   211.9420 H6            1 RES     
   13523 H6         674.5161  -702.8128   210.4427 H6            1 RES     
   13524 H6         673.7555  -701.4474   209.5918 H6            1 RES     
   13525 H6         672.3338  -703.9542   210.6647 H6            1 RES     
   13526 H6         672.8785  -703.6575   209.0058 H6            1 RES     
   13527 H6         670.6101  -702.1656   210.4330 H6            1 RES     
   13528 H6         670.4834  -703.3780   209.1534 H6            1 RES     
   13529 H6         671.7100  -700.5590   208.8249 H6            1 RES     
   13530 H6         670.1017  -701.1148   208.2855 H6            1 RES     
   13531 H6         672.8220  -702.1697   207.2609 H6            1 RES     
   13532 H6         671.1950  -702.7521   206.7247 H6            1 RES     
   13533 H6         670.6512  -700.4383   205.9232 H6            1 RES     
   13534 H6         672.1491  -701.0770   205.1448 H6            1 RES     
   13535 H6         672.2763  -699.8656   206.4758 H6            1 RES     
   13536 H6         674.0833  -703.3474   212.6896 H6            1 RES     
   13537 H6         672.3112  -703.0312   212.7804 H6            1 RES     
   13538 H6         674.5299  -701.6262   214.3656 H6            1 RES     
   13539 H6         672.7228  -701.3956   214.5721 H6            1 RES     
   13540 H6         672.5193  -703.7575   215.2753 H6            1 RES     
   13541 H6         674.2993  -703.9905   215.0383 H6            1 RES     
   13542 H6         674.7737  -702.2085   216.7278 H6            1 RES     
   13543 H6         672.9957  -701.9675   216.9556 H6            1 RES     
   13544 H6         672.7866  -704.3401   217.7638 H6            1 RES     
   13545 H6         674.5476  -704.5875   217.4711 H6            1 RES     
   13546 H6         675.1227  -702.8693   219.1698 H6            1 RES     
   13547 H6         674.1431  -704.2231   219.8432 H6            1 RES     
   13548 H6         672.0720  -702.8055   219.7128 H6            1 RES     
   13549 H6         673.0597  -701.4200   219.1012 H6            1 RES     
   13550 H6         672.6614  -701.2105   221.5214 H6            1 RES     
   13551 H6         673.4268  -702.8182   221.8166 H6            1 RES     
   13552 H6         674.4195  -701.4411   221.1834 H6            1 RES     
   13553 C0         683.6587  -699.1344   219.5819 C0            1 RES     
   13554 C1         682.1482  -699.3771   219.4681 C1            1 RES     
   13555 C1         681.6111  -699.8997   220.5927 C1            1 RES     
   13556 S2         679.9608  -700.1337   220.4612 S2            1 RES     
   13557 C1         679.9214  -699.5202   218.8699 C1            1 RES     
   13558 C1         681.2059  -699.1386   218.4658 C1            1 RES     
   13559 C1         682.6517  -700.0747   221.5400 C1            1 RES     
   13560 C1         683.8441  -699.6850   221.0012 C1            1 RES     
   13561 C1         684.9172  -699.8712   221.8786 C1            1 RES     
   13562 C1         684.4876  -700.4315   223.1090 C1            1 RES     
   13563 S2         682.7935  -700.6422   223.0923 S2            1 RES     
   13564 H3         681.4399  -698.7135   217.4997 H3            1 RES     
   13565 H3         685.9365  -699.6243   221.6222 H3            1 RES     
   13566 N4         685.4591  -701.4253   226.6141 N4            1 RES     
   13567 C1         684.7277  -701.0144   225.5391 C1            1 RES     
   13568 C1         685.3223  -700.8529   224.2661 C1            1 RES     
   13569 C1         686.6921  -701.1530   224.1560 C1            1 RES     
   13570 N4         687.4038  -701.0979   223.0019 N4            1 RES     
   13571 S2         688.9053  -701.5973   223.4793 S2            1 RES     
   13572 N4         688.7262  -701.8943   225.0939 N4            1 RES     
   13573 C1         687.4201  -701.5966   225.2963 C1            1 RES     
   13574 C1         686.7836  -701.7195   226.5240 C1            1 RES     
   13575 H5         683.6782  -700.8020   225.6902 H5            1 RES     
   13576 C0         683.7760  -697.5623   219.5560 C0            1 RES     
   13577 C0         685.0187  -696.6635   219.8890 C0            1 RES     
   13578 C0         684.5284  -695.2121   220.2443 C0            1 RES     
   13579 C0         684.0685  -694.2398   219.1177 C0            1 RES     
   13580 C0         682.7896  -694.5639   218.3178 C0            1 RES     
   13581 C0         681.5150  -694.7766   219.1570 C0            1 RES     
   13582 C0         681.0999  -693.5325   219.9534 C0            1 RES     
   13583 C0         679.8023  -693.7852   220.7180 C0            1 RES     
   13584 C0         686.1180  -696.5356   218.7960 C0            1 RES     
   13585 C0         687.1753  -697.6359   218.7930 C0            1 RES     
   13586 C0         688.1296  -697.4661   217.5965 C0            1 RES     
   13587 C0         689.1740  -698.5913   217.5271 C0            1 RES     
   13588 C0         689.9533  -698.5280   216.2019 C0            1 RES     
   13589 C0         690.8800  -699.7356   215.9687 C0            1 RES     
   13590 C0         690.0998  -701.0514   215.7757 C0            1 RES     
   13591 C0         691.0281  -702.2113   215.4297 C0            1 RES     
   13592 H6         683.3718  -697.2431   218.5851 H6            1 RES     
   13593 H6         683.0481  -697.2628   220.3419 H6            1 RES     
   13594 H6         685.4672  -697.0339   220.8377 H6            1 RES     
   13595 H6         685.3987  -694.7028   220.7161 H6            1 RES     
   13596 H6         683.7514  -695.2537   221.0375 H6            1 RES     
   13597 H6         684.8971  -694.1000   218.3918 H6            1 RES     
   13598 H6         683.9128  -693.2503   219.5975 H6            1 RES     
   13599 H6         682.9603  -695.4426   217.6742 H6            1 RES     
   13600 H6         682.6053  -693.7248   217.6119 H6            1 RES     
   13601 H6         681.6441  -695.6296   219.8483 H6            1 RES     
   13602 H6         680.6913  -695.0354   218.4559 H6            1 RES     
   13603 H6         681.8887  -693.2627   220.6858 H6            1 RES     
   13604 H6         680.9456  -692.6802   219.2567 H6            1 RES     
   13605 H6         678.9813  -694.0406   220.0143 H6            1 RES     
   13606 H6         679.5165  -692.8715   221.2803 H6            1 RES     
   13607 H6         679.9362  -694.6198   221.4392 H6            1 RES     
   13608 H6         686.7102  -695.6103   218.9772 H6            1 RES     
   13609 H6         685.6241  -696.4293   217.8050 H6            1 RES     
   13610 H6         687.7420  -697.6200   219.7495 H6            1 RES     
   13611 H6         686.6761  -698.5916   218.7090 H6            1 RES     
   13612 H6         687.5102  -697.5010   216.6723 H6            1 RES     
   13613 H6         688.6454  -696.4821   217.6383 H6            1 RES     
   13614 H6         689.8685  -698.5372   218.3930 H6            1 RES     
   13615 H6         688.6485  -699.5520   217.5902 H6            1 RES     
   13616 H6         689.2438  -698.4791   215.3461 H6            1 RES     
   13617 H6         690.5591  -697.5953   216.1964 H6            1 RES     
   13618 H6         691.6022  -699.8314   216.8074 H6            1 RES     
   13619 H6         691.4516  -699.5385   215.0355 H6            1 RES     
   13620 H6         689.3676  -700.9308   214.9466 H6            1 RES     
   13621 H6         689.5550  -701.3231   216.6989 H6            1 RES     
   13622 H6         690.4291  -703.1347   215.2923 H6            1 RES     
   13623 H6         691.5765  -702.0004   214.4868 H6            1 RES     
   13624 H6         691.7585  -702.3782   216.2513 H6            1 RES     
   13625 C0         684.3258  -699.8926   218.3638 C0            1 RES     
   13626 C0         685.4985  -700.9228   218.4751 C0            1 RES     
   13627 C0         686.3397  -700.9354   217.1515 C0            1 RES     
   13628 C0         685.8015  -701.6038   215.8623 C0            1 RES     
   13629 C0         684.6259  -700.9244   215.1308 C0            1 RES     
   13630 C0         684.8452  -699.4494   214.7333 C0            1 RES     
   13631 C0         686.0490  -699.2252   213.8089 C0            1 RES     
   13632 C0         686.1628  -697.7518   213.4224 C0            1 RES     
   13633 C0         685.1297  -702.3974   218.8124 C0            1 RES     
   13634 C0         684.5986  -702.6244   220.2177 C0            1 RES     
   13635 C0         684.4305  -704.1079   220.5489 C0            1 RES     
   13636 C0         683.9420  -704.2571   221.9942 C0            1 RES     
   13637 C0         683.7633  -705.7311   222.3775 C0            1 RES     
   13638 C0         683.3365  -705.9179   223.8434 C0            1 RES     
   13639 C0         681.9642  -705.3009   224.1574 C0            1 RES     
   13640 C0         681.5581  -705.5733   225.6019 C0            1 RES     
   13641 H6         683.5509  -700.3747   217.7428 H6            1 RES     
   13642 H6         684.6829  -699.0582   217.7401 H6            1 RES     
   13643 H6         686.1934  -700.5635   219.2592 H6            1 RES     
   13644 H6         687.2699  -701.4939   217.3940 H6            1 RES     
   13645 H6         686.6421  -699.9091   216.8830 H6            1 RES     
   13646 H6         685.5403  -702.6619   216.0676 H6            1 RES     
   13647 H6         686.6500  -701.6348   215.1454 H6            1 RES     
   13648 H6         683.7077  -701.0016   215.7373 H6            1 RES     
   13649 H6         684.4284  -701.5070   214.2048 H6            1 RES     
   13650 H6         684.9695  -698.8169   215.6297 H6            1 RES     
   13651 H6         683.9255  -699.1053   214.2107 H6            1 RES     
   13652 H6         686.9879  -699.5204   214.3226 H6            1 RES     
   13653 H6         685.9324  -699.8344   212.8868 H6            1 RES     
   13654 H6         685.2477  -697.4213   212.8855 H6            1 RES     
   13655 H6         687.0386  -697.6046   212.7569 H6            1 RES     
   13656 H6         686.2967  -697.1234   214.3295 H6            1 RES     
   13657 H6         686.0649  -702.9965   218.7400 H6            1 RES     
   13658 H6         684.4030  -702.7962   218.0718 H6            1 RES     
   13659 H6         685.3344  -702.2096   220.9350 H6            1 RES     
   13660 H6         683.6132  -702.1386   220.3076 H6            1 RES     
   13661 H6         683.6982  -704.5671   219.8500 H6            1 RES     
   13662 H6         685.4093  -704.6271   220.4395 H6            1 RES     
   13663 H6         684.6830  -703.7914   222.6820 H6            1 RES     
   13664 H6         682.9756  -703.7201   222.0894 H6            1 RES     
   13665 H6         683.0137  -706.2058   221.7075 H6            1 RES     
   13666 H6         684.7353  -706.2538   222.2384 H6            1 RES     
   13667 H6         684.1082  -705.4768   224.5125 H6            1 RES     
   13668 H6         683.2882  -707.0108   224.0428 H6            1 RES     
   13669 H6         681.1972  -705.7352   223.4803 H6            1 RES     
   13670 H6         681.9904  -704.2007   224.0145 H6            1 RES     
   13671 H6         680.5652  -705.1174   225.8001 H6            1 RES     
   13672 H6         681.4907  -706.6669   225.7841 H6            1 RES     
   13673 H6         682.2995  -705.1301   226.3005 H6            1 RES     
   13674 C0         690.5028  -702.1382   230.4238 C0            1 RES     
   13675 C1         689.2892  -702.3376   229.5068 C1            1 RES     
   13676 C1         688.4667  -703.3244   229.9265 C1            1 RES     
   13677 S2         687.1365  -703.5113   228.9311 S2            1 RES     
   13678 C1         687.6318  -702.2455   227.9001 C1            1 RES     
   13679 C1         688.8349  -701.6932   228.3545 C1            1 RES     
   13680 C1         689.0153  -703.8850   231.1079 C1            1 RES     
   13681 C1         690.1931  -703.2667   231.4150 C1            1 RES     
   13682 C1         690.8024  -703.8050   232.5530 C1            1 RES     
   13683 C1         690.0379  -704.8708   233.0934 C1            1 RES     
   13684 S2         688.6151  -705.0897   232.1757 S2            1 RES     
   13685 H3         689.3484  -700.8720   227.8743 H3            1 RES     
   13686 H3         691.7431  -703.4456   232.9425 H3            1 RES     
   13687 N4         689.6348  -707.3196   235.9320 N4            1 RES     
   13688 C1         689.3546  -706.4839   234.8916 C1            1 RES     
   13689 C1         690.3761  -705.7506   234.2443 C1            1 RES     
   13690 C1         691.6909  -705.9372   234.7080 C1            1 RES     
   13691 N4         692.7895  -705.3499   234.1699 N4            1 RES     
   13692 S2         694.0173  -705.9768   235.0817 S2            1 RES     
   13693 N4         693.2459  -706.9758   236.1467 N4            1 RES     
   13694 C1         691.9482  -706.8318   235.7853 C1            1 RES     
   13695 C1         690.9000  -707.5110   236.3916 C1            1 RES     
   13696 H5         688.3230  -706.3868   234.5819 H5            1 RES     
   13697 C0         690.2428  -700.7221   231.0663 C0            1 RES     
   13698 C0         690.9734  -700.0430   232.2778 C0            1 RES     
   13699 C0         690.0492  -698.9207   232.8775 C0            1 RES     
   13700 C0         689.8946  -697.5548   232.1450 C0            1 RES     
   13701 C0         689.1940  -697.5113   230.7711 C0            1 RES     
   13702 C0         687.7746  -698.1094   230.7279 C0            1 RES     
   13703 C0         686.7782  -697.3698   231.6303 C0            1 RES     
   13704 C0         685.3800  -697.9705   231.5020 C0            1 RES     
   13705 C0         692.3674  -699.4096   232.0041 C0            1 RES     
   13706 C0         693.5539  -700.3651   232.0916 C0            1 RES     
   13707 C0         694.8552  -699.6509   231.6823 C0            1 RES     
   13708 C0         696.0646  -700.5989   231.7019 C0            1 RES     
   13709 C0         697.2930  -699.9255   231.0655 C0            1 RES     
   13710 C0         698.4887  -700.8755   230.8676 C0            1 RES     
   13711 C0         698.2017  -701.9792   229.8299 C0            1 RES     
   13712 C0         699.4353  -702.8358   229.5627 C0            1 RES     
   13713 H6         690.2259  -700.0077   230.2312 H6            1 RES     
   13714 H6         689.2020  -700.8271   231.4443 H6            1 RES     
   13715 H6         691.0505  -700.7920   233.0972 H6            1 RES     
   13716 H6         690.4882  -698.6600   233.8669 H6            1 RES     
   13717 H6         689.0435  -699.3342   233.1061 H6            1 RES     
   13718 H6         690.8935  -697.0830   232.0322 H6            1 RES     
   13719 H6         689.3197  -696.8930   232.8270 H6            1 RES     
   13720 H6         689.8252  -697.9998   230.0106 H6            1 RES     
   13721 H6         689.1332  -696.4481   230.4512 H6            1 RES     
   13722 H6         687.7968  -699.1797   231.0042 H6            1 RES     
   13723 H6         687.4142  -698.0420   229.6779 H6            1 RES     
   13724 H6         687.0922  -697.4425   232.6921 H6            1 RES     
   13725 H6         686.7366  -696.2983   231.3373 H6            1 RES     
   13726 H6         685.0222  -697.8988   230.4526 H6            1 RES     
   13727 H6         684.6744  -697.4166   232.1563 H6            1 RES     
   13728 H6         685.3892  -699.0377   231.8111 H6            1 RES     
   13729 H6         692.5879  -698.6529   232.7906 H6            1 RES     
   13730 H6         692.3314  -698.8779   231.0276 H6            1 RES     
   13731 H6         693.6391  -700.7705   233.1234 H6            1 RES     
   13732 H6         693.3806  -701.1906   231.4148 H6            1 RES     
   13733 H6         694.7148  -699.2782   230.6429 H6            1 RES     
   13734 H6         695.0543  -698.7806   232.3450 H6            1 RES     
   13735 H6         696.2908  -700.9263   232.7394 H6            1 RES     
   13736 H6         695.8070  -701.4960   231.1256 H6            1 RES     
   13737 H6         697.0249  -699.5110   230.0682 H6            1 RES     
   13738 H6         697.6030  -699.0774   231.7151 H6            1 RES     
   13739 H6         698.7863  -701.3237   231.8396 H6            1 RES     
   13740 H6         699.3374  -700.2647   230.4894 H6            1 RES     
   13741 H6         697.8854  -701.5135   228.8702 H6            1 RES     
   13742 H6         697.3984  -702.6514   230.1846 H6            1 RES     
   13743 H6         699.1898  -703.6107   228.8080 H6            1 RES     
   13744 H6         700.2647  -702.2089   229.1710 H6            1 RES     
   13745 H6         699.7643  -703.3395   230.4979 H6            1 RES     
   13746 C0         691.7830  -702.2482   229.5003 C0            1 RES     
   13747 C0         693.0051  -703.1903   229.7606 C0            1 RES     
   13748 C0         694.3051  -702.5838   229.1263 C0            1 RES     
   13749 C0         694.5410  -702.6091   227.5959 C0            1 RES     
   13750 C0         693.6630  -701.6994   226.7126 C0            1 RES     
   13751 C0         693.6729  -700.1994   227.0758 C0            1 RES     
   13752 C0         695.0637  -699.5540   227.0222 C0            1 RES     
   13753 C0         694.9770  -698.0630   227.3421 C0            1 RES     
   13754 C0         692.8903  -704.6660   229.2776 C0            1 RES     
   13755 C0         691.8836  -705.5160   230.0343 C0            1 RES     
   13756 C0         691.9487  -706.9923   229.6407 C0            1 RES     
   13757 C0         690.9438  -707.7901   230.4795 C0            1 RES     
   13758 C0         690.9754  -709.2817   230.1253 C0            1 RES     
   13759 C0         690.0245  -710.1209   230.9957 C0            1 RES     
   13760 C0         688.5456  -709.7441   230.8128 C0            1 RES     
   13761 C0         687.6424  -710.6495   231.6435 C0            1 RES     
   13762 H6         691.4843  -702.4149   228.4508 H6            1 RES     
   13763 H6         692.1615  -701.2140   229.5061 H6            1 RES     
   13764 H6         693.1941  -703.2086   230.8518 H6            1 RES     
   13765 H6         695.1475  -703.1702   229.5534 H6            1 RES     
   13766 H6         694.4393  -701.5405   229.4582 H6            1 RES     
   13767 H6         694.4772  -703.6513   227.2223 H6            1 RES     
   13768 H6         695.5941  -702.2932   227.4341 H6            1 RES     
   13769 H6         692.6217  -702.0635   226.7123 H6            1 RES     
   13770 H6         694.0221  -701.8046   225.6658 H6            1 RES     
   13771 H6         693.2506  -700.0380   228.0831 H6            1 RES     
   13772 H6         693.0094  -699.6773   226.3515 H6            1 RES     
   13773 H6         695.7360  -700.0282   227.7677 H6            1 RES     
   13774 H6         695.4981  -699.6830   226.0075 H6            1 RES     
   13775 H6         694.3269  -697.5464   226.6036 H6            1 RES     
   13776 H6         695.9897  -697.6108   227.3025 H6            1 RES     
   13777 H6         694.5595  -697.9098   228.3609 H6            1 RES     
   13778 H6         693.8804  -705.1462   229.4445 H6            1 RES     
   13779 H6         692.6646  -704.7033   228.1898 H6            1 RES     
   13780 H6         692.1233  -705.4538   231.1145 H6            1 RES     
   13781 H6         690.8691  -705.1460   229.8131 H6            1 RES     
   13782 H6         691.7149  -707.1025   228.5597 H6            1 RES     
   13783 H6         692.9737  -707.3835   229.8305 H6            1 RES     
   13784 H6         691.1885  -707.6690   231.5586 H6            1 RES     
   13785 H6         689.9315  -707.3764   230.2914 H6            1 RES     
   13786 H6         690.7177  -709.4191   229.0525 H6            1 RES     
   13787 H6         692.0078  -709.6628   230.2871 H6            1 RES     
   13788 H6         690.3098  -710.0126   232.0655 H6            1 RES     
   13789 H6         690.1574  -711.1867   230.7074 H6            1 RES     
   13790 H6         688.2662  -709.8427   229.7415 H6            1 RES     
   13791 H6         688.3677  -708.6980   231.1374 H6            1 RES     
   13792 H6         686.5823  -710.3552   231.4920 H6            1 RES     
   13793 H6         687.7660  -711.7085   231.3321 H6            1 RES     
   13794 H6         687.8881  -710.5533   232.7226 H6            1 RES     
   13795 C0         692.5933  -709.5629   241.0969 C0            1 RES     
   13796 C1         691.9697  -709.3537   239.7109 C1            1 RES     
   13797 C1         691.3075  -710.4422   239.2601 C1            1 RES     
   13798 S2         690.6123  -710.1891   237.7608 S2            1 RES     
   13799 C1         691.1819  -708.5830   237.6806 C1            1 RES     
   13800 C1         691.9088  -708.2685   238.8346 C1            1 RES     
   13801 C1         691.4184  -711.4637   240.2373 C1            1 RES     
   13802 C1         692.1701  -711.0244   241.2889 C1            1 RES     
   13803 C1         692.3472  -712.0051   242.2703 C1            1 RES     
   13804 C1         691.7032  -713.2172   241.9119 C1            1 RES     
   13805 S2         690.9017  -713.0299   240.4162 S2            1 RES     
   13806 H3         692.3661  -707.3074   239.0240 H3            1 RES     
   13807 H3         692.9182  -711.8393   243.1714 H3            1 RES     
   13808 N4         690.7279  -716.6934   242.9988 N4            1 RES     
   13809 C1         690.7261  -715.4842   242.3686 C1            1 RES     
   13810 C1         691.7191  -714.5144   242.6399 C1            1 RES     
   13811 C1         692.7153  -714.8604   243.5708 C1            1 RES     
   13812 N4         693.7639  -714.0683   243.9090 N4            1 RES     
   13813 S2         694.5985  -715.0115   244.9794 S2            1 RES     
   13814 N4         693.7099  -716.4015   245.0548 N4            1 RES     
   13815 C1         692.6953  -716.1393   244.1961 C1            1 RES     
   13816 C1         691.6836  -717.0430   243.9006 C1            1 RES     
   13817 H5         689.9334  -715.2811   241.6617 H5            1 RES     
   13818 C0         691.7567  -708.5967   242.0201 C0            1 RES     
   13819 C0         691.7192  -708.5224   243.5873 C0            1 RES     
   13820 C0         690.3905  -707.8140   244.0410 C0            1 RES     
   13821 C0         690.2417  -706.2685   243.9177 C0            1 RES     
   13822 C0         690.2025  -705.6244   242.5163 C0            1 RES     
   13823 C0         689.1231  -706.1705   241.5620 C0            1 RES     
   13824 C0         687.6936  -705.9419   242.0706 C0            1 RES     
   13825 C0         686.6694  -706.4514   241.0589 C0            1 RES     
   13826 C0         692.9028  -707.8020   244.2942 C0            1 RES     
   13827 C0         694.1293  -708.6665   244.5713 C0            1 RES     
   13828 C0         695.2702  -707.8149   245.1579 C0            1 RES     
   13829 C0         696.5438  -708.6414   245.3958 C0            1 RES     
   13830 C0         697.7271  -707.7251   245.7531 C0            1 RES     
   13831 C0         699.0815  -708.4555   245.8129 C0            1 RES     
   13832 C0         699.5337  -708.9769   244.4342 C0            1 RES     
   13833 C0         700.9284  -709.5917   244.4940 C0            1 RES     
   13834 H6         691.9267  -707.5825   241.6323 H6            1 RES     
   13835 H6         690.7118  -708.8850   241.7704 H6            1 RES     
   13836 H6         691.6167  -709.5590   243.9788 H6            1 RES     
   13837 H6         690.2919  -708.0190   245.1309 H6            1 RES     
   13838 H6         689.5131  -708.3090   243.5721 H6            1 RES     
   13839 H6         691.0501  -705.7740   244.4965 H6            1 RES     
   13840 H6         689.2926  -705.9999   244.4282 H6            1 RES     
   13841 H6         691.1930  -705.7017   242.0382 H6            1 RES     
   13842 H6         690.0326  -704.5331   242.6455 H6            1 RES     
   13843 H6         689.2795  -707.2492   241.3771 H6            1 RES     
   13844 H6         689.2379  -705.6438   240.5892 H6            1 RES     
   13845 H6         687.5344  -706.4797   243.0281 H6            1 RES     
   13846 H6         687.5270  -704.8550   242.2335 H6            1 RES     
   13847 H6         686.7852  -705.9211   240.0895 H6            1 RES     
   13848 H6         685.6435  -706.2695   241.4427 H6            1 RES     
   13849 H6         686.7998  -707.5425   240.8946 H6            1 RES     
   13850 H6         692.5816  -707.4780   245.3099 H6            1 RES     
   13851 H6         693.1594  -706.8872   243.7156 H6            1 RES     
   13852 H6         693.8621  -709.4926   245.2658 H6            1 RES     
   13853 H6         694.4615  -709.1004   243.6380 H6            1 RES     
   13854 H6         695.5002  -707.0157   244.4180 H6            1 RES     
   13855 H6         694.9559  -707.3341   246.1099 H6            1 RES     
   13856 H6         696.3787  -709.3974   246.1934 H6            1 RES     
   13857 H6         696.7767  -709.1866   244.4729 H6            1 RES     
   13858 H6         697.8177  -706.9107   245.0003 H6            1 RES     
   13859 H6         697.5205  -707.2557   246.7401 H6            1 RES     
   13860 H6         699.0354  -709.2878   246.5473 H6            1 RES     
   13861 H6         699.8384  -707.7205   246.1641 H6            1 RES     
   13862 H6         699.5541  -708.1349   243.7071 H6            1 RES     
   13863 H6         698.8411  -709.7549   244.0629 H6            1 RES     
   13864 H6         701.2185  -709.9468   243.4841 H6            1 RES     
   13865 H6         701.6703  -708.8365   244.8314 H6            1 RES     
   13866 H6         700.9385  -710.4560   245.1933 H6            1 RES     
   13867 C0         694.1299  -709.2142   240.9523 C0            1 RES     
   13868 C0         695.3110  -710.1440   241.3874 C0            1 RES     
   13869 C0         696.5718  -709.2867   241.7554 C0            1 RES     
   13870 C0         697.4337  -708.6118   240.6599 C0            1 RES     
   13871 C0         696.8254  -707.4213   239.8909 C0            1 RES     
   13872 C0         696.3233  -706.2480   240.7586 C0            1 RES     
   13873 C0         697.4078  -705.6165   241.6412 C0            1 RES     
   13874 C0         696.8418  -704.4337   242.4246 C0            1 RES     
   13875 C0         695.7665  -711.2440   240.3841 C0            1 RES     
   13876 C0         694.7677  -712.3670   240.1607 C0            1 RES     
   13877 C0         695.3427  -713.5038   239.3147 C0            1 RES     
   13878 C0         694.2982  -714.6174   239.1768 C0            1 RES     
   13879 C0         694.8307  -715.7865   238.3395 C0            1 RES     
   13880 C0         693.8299  -716.9500   238.2367 C0            1 RES     
   13881 C0         692.5259  -716.5651   237.5197 C0            1 RES     
   13882 C0         691.5994  -717.7686   237.3833 C0            1 RES     
   13883 H6         694.3541  -708.8950   239.9197 H6            1 RES     
   13884 H6         694.2123  -708.2861   241.5394 H6            1 RES     
   13885 H6         695.0171  -710.6494   242.3281 H6            1 RES     
   13886 H6         697.2659  -709.9834   242.2738 H6            1 RES     
   13887 H6         696.3002  -708.5034   242.4831 H6            1 RES     
   13888 H6         697.7843  -709.3736   239.9342 H6            1 RES     
   13889 H6         698.3473  -708.2329   241.1665 H6            1 RES     
   13890 H6         696.0024  -707.7696   239.2442 H6            1 RES     
   13891 H6         697.6086  -707.0336   239.2038 H6            1 RES     
   13892 H6         695.4884  -706.5691   241.4056 H6            1 RES     
   13893 H6         695.9271  -705.4701   240.0693 H6            1 RES     
   13894 H6         697.7914  -706.3610   242.3700 H6            1 RES     
   13895 H6         698.2488  -705.2627   241.0068 H6            1 RES     
   13896 H6         696.4646  -703.6540   241.7285 H6            1 RES     
   13897 H6         697.6359  -703.9894   243.0600 H6            1 RES     
   13898 H6         696.0081  -704.7674   243.0799 H6            1 RES     
   13899 H6         696.6748  -711.7250   240.8111 H6            1 RES     
   13900 H6         696.0400  -710.7905   239.4067 H6            1 RES     
   13901 H6         694.5038  -712.7945   241.1485 H6            1 RES     
   13902 H6         693.8874  -711.9603   239.6368 H6            1 RES     
   13903 H6         695.6235  -713.1186   238.3107 H6            1 RES     
   13904 H6         696.2505  -713.9150   239.8111 H6            1 RES     
   13905 H6         694.0251  -714.9918   240.1889 H6            1 RES     
   13906 H6         693.3954  -714.1866   238.6967 H6            1 RES     
   13907 H6         695.0938  -715.4298   237.3198 H6            1 RES     
   13908 H6         695.7545  -716.1759   238.8214 H6            1 RES     
   13909 H6         693.5992  -717.3307   239.2563 H6            1 RES     
   13910 H6         694.3217  -717.7669   237.6645 H6            1 RES     
   13911 H6         692.7601  -716.1749   236.5056 H6            1 RES     
   13912 H6         691.9840  -715.7832   238.0910 H6            1 RES     
   13913 H6         690.6676  -717.4620   236.8628 H6            1 RES     
   13914 H6         692.0913  -718.5693   236.7911 H6            1 RES     
   13915 H6         691.3330  -718.1652   238.3863 H6            1 RES     
   13916 C0         691.6530  -720.9616   247.6235 C0            1 RES     
   13917 C1         691.6469  -720.1626   246.3139 C1            1 RES     
   13918 C1         691.5185  -720.9443   245.2190 C1            1 RES     
   13919 S2         691.4875  -720.0565   243.8026 S2            1 RES     
   13920 C1         691.6374  -718.5752   244.6355 C1            1 RES     
   13921 C1         691.7078  -718.8001   246.0151 C1            1 RES     
   13922 C1         691.4433  -722.2945   245.6458 C1            1 RES     
   13923 C1         691.5491  -722.3612   247.0053 C1            1 RES     
   13924 C1         691.5203  -723.6753   247.4832 C1            1 RES     
   13925 C1         691.3979  -724.6087   246.4220 C1            1 RES     
   13926 S2         691.2882  -723.7836   244.9314 S2            1 RES     
   13927 H3         691.7985  -718.0184   246.7564 H3            1 RES     
   13928 H3         691.5972  -723.9219   248.5315 H3            1 RES     
   13929 N4         690.9107  -728.2219   245.4609 N4            1 RES     
   13930 C1         690.8893  -726.8589   245.4317 C1            1 RES     
   13931 C1         691.4111  -726.0942   246.5009 C1            1 RES     
   13932 C1         691.9684  -726.8009   247.5818 C1            1 RES     
   13933 N4         692.5527  -726.2236   248.6620 N4            1 RES     
   13934 S2         693.0516  -727.5296   249.5438 S2            1 RES     
   13935 N4         692.5736  -728.8233   248.6354 N4            1 RES     
   13936 C1         691.9894  -728.2244   247.5698 C1            1 RES     
   13937 C1         691.4459  -728.9196   246.4980 C1            1 RES     
   13938 H5         690.4485  -726.3762   244.5702 H5            1 RES     
   13939 C0         690.3005  -720.5367   248.3135 C0            1 RES     
   13940 C0         689.5847  -721.1800   249.5532 C0            1 RES     
   13941 C0         688.0628  -720.7838   249.5363 C0            1 RES     
   13942 C0         687.6179  -719.3534   249.9629 C0            1 RES     
   13943 C0         688.0256  -718.1463   249.0927 C0            1 RES     
   13944 C0         687.6175  -718.2264   247.6091 C0            1 RES     
   13945 C0         686.0983  -718.2852   247.4013 C0            1 RES     
   13946 C0         685.7542  -718.3053   245.9136 C0            1 RES     
   13947 C0         690.1474  -720.8303   250.9605 C0            1 RES     
   13948 C0         691.3068  -721.6984   251.4408 C0            1 RES     
   13949 C0         691.8521  -721.1783   252.7837 C0            1 RES     
   13950 C0         693.0602  -721.9937   253.2707 C0            1 RES     
   13951 C0         693.7245  -721.3113   254.4792 C0            1 RES     
   13952 C0         695.0560  -721.9586   254.9030 C0            1 RES     
   13953 C0         696.1603  -721.7897   253.8403 C0            1 RES     
   13954 C0         697.4996  -722.3331   254.3282 C0            1 RES     
   13955 H6         690.3726  -719.4532   248.4827 H6            1 RES     
   13956 H6         689.5622  -720.7047   247.4986 H6            1 RES     
   13957 H6         689.5753  -722.2836   249.4110 H6            1 RES     
   13958 H6         687.5628  -721.4617   250.2643 H6            1 RES     
   13959 H6         687.6131  -721.0332   248.5512 H6            1 RES     
   13960 H6         687.9609  -719.1558   251.0003 H6            1 RES     
   13961 H6         686.5081  -719.3665   250.0055 H6            1 RES     
   13962 H6         689.1122  -717.9765   249.1694 H6            1 RES     
   13963 H6         687.5629  -717.2357   249.5320 H6            1 RES     
   13964 H6         688.0890  -719.1010   247.1243 H6            1 RES     
   13965 H6         688.0056  -717.3143   247.1048 H6            1 RES     
   13966 H6         685.6806  -719.2013   247.8679 H6            1 RES     
   13967 H6         685.6253  -717.3935   247.8670 H6            1 RES     
   13968 H6         686.1409  -717.3915   245.4139 H6            1 RES     
   13969 H6         684.6517  -718.3401   245.7862 H6            1 RES     
   13970 H6         686.1972  -719.2009   245.4276 H6            1 RES     
   13971 H6         689.3586  -721.0080   251.7260 H6            1 RES     
   13972 H6         690.3999  -719.7472   250.9839 H6            1 RES     
   13973 H6         690.9748  -722.7551   251.5374 H6            1 RES     
   13974 H6         692.0963  -721.6557   250.7030 H6            1 RES     
   13975 H6         692.1772  -720.1259   252.6230 H6            1 RES     
   13976 H6         691.0590  -721.1872   253.5629 H6            1 RES     
   13977 H6         692.7571  -723.0322   253.5248 H6            1 RES     
   13978 H6         693.7851  -722.0572   252.4498 H6            1 RES     
   13979 H6         693.9297  -720.2427   254.2466 H6            1 RES     
   13980 H6         693.0134  -721.3437   255.3339 H6            1 RES     
   13981 H6         694.9018  -723.0339   255.1358 H6            1 RES     
   13982 H6         695.3934  -721.4448   255.8296 H6            1 RES     
   13983 H6         696.2867  -720.7097   253.6044 H6            1 RES     
   13984 H6         695.8978  -722.3314   252.9126 H6            1 RES     
   13985 H6         698.2662  -722.1865   253.5402 H6            1 RES     
   13986 H6         697.8250  -721.7955   255.2445 H6            1 RES     
   13987 H6         697.4169  -723.4198   254.5486 H6            1 RES     
   13988 C0         692.9739  -720.5502   248.3914 C0            1 RES     
   13989 C0         694.0421  -721.5490   248.9484 C0            1 RES     
   13990 C0         694.7836  -720.9223   250.1802 C0            1 RES     
   13991 C0         695.8413  -719.8055   249.9998 C0            1 RES     
   13992 C0         695.3534  -718.4101   249.5598 C0            1 RES     
   13993 C0         694.2674  -717.7678   250.4485 C0            1 RES     
   13994 C0         694.6901  -717.5791   251.9113 C0            1 RES     
   13995 C0         693.5818  -716.8917   252.7065 C0            1 RES     
   13996 C0         695.1274  -722.0657   247.9588 C0            1 RES     
   13997 C0         694.6166  -722.9889   246.8655 C0            1 RES     
   13998 C0         695.7483  -723.6068   246.0432 C0            1 RES     
   13999 C0         695.1590  -724.5611   244.9982 C0            1 RES     
   14000 C0         696.2576  -725.2127   244.1497 C0            1 RES     
   14001 C0         695.7035  -726.2265   243.1343 C0            1 RES     
   14002 C0         694.7772  -725.5889   242.0864 C0            1 RES     
   14003 C0         694.3117  -726.6215   241.0654 C0            1 RES     
   14004 H6         693.5324  -719.7936   247.8133 H6            1 RES     
   14005 H6         692.5761  -719.9863   249.2496 H6            1 RES     
   14006 H6         693.5061  -722.4318   249.3486 H6            1 RES     
   14007 H6         695.3355  -721.7621   250.6556 H6            1 RES     
   14008 H6         694.0512  -720.5592   250.9208 H6            1 RES     
   14009 H6         696.6367  -720.1485   249.3075 H6            1 RES     
   14010 H6         696.3343  -719.6759   250.9873 H6            1 RES     
   14011 H6         694.9916  -718.4470   248.5183 H6            1 RES     
   14012 H6         696.2371  -717.7358   249.5509 H6            1 RES     
   14013 H6         693.3396  -718.3658   250.4265 H6            1 RES     
   14014 H6         694.0291  -716.7715   250.0150 H6            1 RES     
   14015 H6         694.8927  -718.5637   252.3825 H6            1 RES     
   14016 H6         695.6100  -716.9576   251.9587 H6            1 RES     
   14017 H6         693.3626  -715.8903   252.2777 H6            1 RES     
   14018 H6         693.9003  -716.7648   253.7621 H6            1 RES     
   14019 H6         692.6547  -717.5045   252.6868 H6            1 RES     
   14020 H6         695.8540  -722.6669   248.5499 H6            1 RES     
   14021 H6         695.6735  -721.2131   247.4999 H6            1 RES     
   14022 H6         694.0683  -723.8227   247.3473 H6            1 RES     
   14023 H6         693.9733  -722.4093   246.1833 H6            1 RES     
   14024 H6         696.3284  -722.8028   245.5405 H6            1 RES     
   14025 H6         696.4285  -724.1771   246.7153 H6            1 RES     
   14026 H6         694.5797  -725.3588   245.5151 H6            1 RES     
   14027 H6         694.4717  -723.9805   244.3488 H6            1 RES     
   14028 H6         696.8356  -724.4276   243.6152 H6            1 RES     
   14029 H6         696.9527  -725.7567   244.8267 H6            1 RES     
   14030 H6         695.1595  -727.0323   243.6752 H6            1 RES     
   14031 H6         696.5703  -726.6849   242.6097 H6            1 RES     
   14032 H6         695.3196  -724.7770   241.5552 H6            1 RES     
   14033 H6         693.8754  -725.1624   242.5725 H6            1 RES     
   14034 H6         693.6458  -726.1339   240.3224 H6            1 RES     
   14035 H6         695.1831  -727.0563   240.5314 H6            1 RES     
   14036 H6         693.7474  -727.4347   241.5698 H6            1 RES     
   14037 C0         690.7699  -734.0977   247.8933 C0            1 RES     
   14038 C1         691.1307  -732.7933   247.1710 C1            1 RES     
   14039 C1         691.6691  -732.9981   245.9485 C1            1 RES     
   14040 S2         692.0324  -731.5667   245.1645 S2            1 RES     
   14041 C1         691.4577  -730.6192   246.4615 C1            1 RES     
   14042 C1         690.9869  -731.4419   247.4913 C1            1 RES     
   14043 C1         691.7432  -734.3966   245.7263 C1            1 RES     
   14044 C1         691.2743  -735.0685   246.8185 C1            1 RES     
   14045 C1         691.3586  -736.4569   246.6729 C1            1 RES     
   14046 C1         691.9240  -736.8121   245.4213 C1            1 RES     
   14047 S2         692.2649  -735.4049   244.5168 S2            1 RES     
   14048 H3         690.5656  -731.0780   248.4180 H3            1 RES     
   14049 H3         691.0393  -737.1491   247.4375 H3            1 RES     
   14050 N4         692.7652  -739.6103   243.0382 N4            1 RES     
   14051 C1         692.4349  -738.3822   243.5302 C1            1 RES     
   14052 C1         692.2551  -738.1719   244.9172 C1            1 RES     
   14053 C1         692.4511  -739.2781   245.7636 C1            1 RES     
   14054 N4         692.3657  -739.2385   247.1173 N4            1 RES     
   14055 S2         692.7376  -740.7903   247.5482 S2            1 RES     
   14056 N4         693.0132  -741.5440   246.1048 N4            1 RES     
   14057 C1         692.8129  -740.5415   245.2158 C1            1 RES     
   14058 C1         692.9583  -740.6891   243.8430 C1            1 RES     
   14059 H5         692.3009  -737.5723   242.8262 H5            1 RES     
   14060 C0         689.1944  -734.0618   247.9409 C0            1 RES     
   14061 C0         688.1956  -735.2122   248.3175 C0            1 RES     
   14062 C0         686.7791  -734.8861   247.7172 C0            1 RES     
   14063 C0         685.8693  -733.8138   248.3868 C0            1 RES     
   14064 C0         686.3079  -732.3347   248.3676 C0            1 RES     
   14065 C0         686.6003  -731.7446   246.9746 C0            1 RES     
   14066 C0         685.3753  -731.7377   246.0507 C0            1 RES     
   14067 C0         685.7110  -731.0908   244.7087 C0            1 RES     
   14068 C0         688.0066  -735.5240   249.8296 C0            1 RES     
   14069 C0         689.0219  -736.4887   250.4354 C0            1 RES     
   14070 C0         688.8045  -736.6198   251.9541 C0            1 RES     
   14071 C0         689.8471  -737.5395   252.6091 C0            1 RES     
   14072 C0         689.7522  -737.4624   254.1428 C0            1 RES     
   14073 C0         690.8894  -738.2008   254.8729 C0            1 RES     
   14074 C0         692.2652  -737.5445   254.6412 C0            1 RES     
   14075 C0         693.3572  -738.2190   255.4654 C0            1 RES     
   14076 H6         688.9280  -733.1705   248.5262 H6            1 RES     
   14077 H6         688.9353  -733.8599   246.8781 H6            1 RES     
   14078 H6         688.5101  -736.1322   247.7761 H6            1 RES     
   14079 H6         686.1942  -735.8311   247.7840 H6            1 RES     
   14080 H6         686.8636  -734.6733   246.6299 H6            1 RES     
   14081 H6         685.6815  -734.0989   249.4434 H6            1 RES     
   14082 H6         684.8847  -733.8701   247.8758 H6            1 RES     
   14083 H6         687.1844  -732.1931   249.0213 H6            1 RES     
   14084 H6         685.5007  -731.7320   248.8382 H6            1 RES     
   14085 H6         687.4259  -732.2944   246.4866 H6            1 RES     
   14086 H6         686.9367  -730.6944   247.1193 H6            1 RES     
   14087 H6         685.0300  -732.7750   245.8606 H6            1 RES     
   14088 H6         684.5524  -731.1640   246.5297 H6            1 RES     
   14089 H6         686.0438  -730.0412   244.8569 H6            1 RES     
   14090 H6         684.8102  -731.0894   244.0595 H6            1 RES     
   14091 H6         686.5172  -731.6595   244.1977 H6            1 RES     
   14092 H6         687.0347  -736.0466   249.9782 H6            1 RES     
   14093 H6         687.9598  -734.5631   250.3881 H6            1 RES     
   14094 H6         688.9421  -737.4822   249.9425 H6            1 RES     
   14095 H6         690.0148  -736.0990   250.2568 H6            1 RES     
   14096 H6         688.9067  -735.6014   252.3917 H6            1 RES     
   14097 H6         687.7830  -736.9982   252.1765 H6            1 RES     
   14098 H6         689.7212  -738.5873   252.2609 H6            1 RES     
   14099 H6         690.8439  -737.2084   252.2931 H6            1 RES     
   14100 H6         689.7762  -736.3997   254.4719 H6            1 RES     
   14101 H6         688.7758  -737.8940   254.4552 H6            1 RES     
   14102 H6         690.9114  -739.2684   254.5663 H6            1 RES     
   14103 H6         690.6687  -738.1539   255.9618 H6            1 RES     
   14104 H6         692.2190  -736.4720   254.9338 H6            1 RES     
   14105 H6         692.5584  -737.6139   253.5772 H6            1 RES     
   14106 H6         694.3267  -737.7144   255.2764 H6            1 RES     
   14107 H6         693.1247  -738.1465   256.5495 H6            1 RES     
   14108 H6         693.4498  -739.2895   255.1793 H6            1 RES     
   14109 C0         691.5002  -734.0480   249.2961 C0            1 RES     
   14110 C0         692.4343  -735.1661   249.8673 C0            1 RES     
   14111 C0         692.4101  -735.1473   251.4354 C0            1 RES     
   14112 C0         693.1453  -734.0459   252.2384 C0            1 RES     
   14113 C0         692.5742  -732.6139   252.1938 C0            1 RES     
   14114 C0         691.0955  -732.4678   252.6107 C0            1 RES     
   14115 C0         690.7989  -732.9514   254.0362 C0            1 RES     
   14116 C0         689.3297  -732.7234   254.3862 C0            1 RES     
   14117 C0         693.9254  -735.1545   249.4195 C0            1 RES     
   14118 C0         694.1628  -735.4948   247.9578 C0            1 RES     
   14119 C0         695.6474  -735.6482   247.6247 C0            1 RES     
   14120 C0         695.8031  -736.0400   246.1509 C0            1 RES     
   14121 C0         697.2780  -736.2122   245.7682 C0            1 RES     
   14122 C0         697.4659  -736.6696   244.3116 C0            1 RES     
   14123 C0         696.9500  -735.6484   243.2852 C0            1 RES     
   14124 C0         697.2222  -736.1179   241.8601 C0            1 RES     
   14125 H6         692.0536  -733.0992   249.4057 H6            1 RES     
   14126 H6         690.6542  -733.9423   249.9932 H6            1 RES     
   14127 H6         692.0059  -736.1464   249.5805 H6            1 RES     
   14128 H6         692.8901  -736.0985   251.7529 H6            1 RES     
   14129 H6         691.3696  -735.1752   251.8003 H6            1 RES     
   14130 H6         694.2157  -734.0205   251.9497 H6            1 RES     
   14131 H6         693.1260  -734.3656   253.3025 H6            1 RES     
   14132 H6         692.7091  -732.1841   251.1868 H6            1 RES     
   14133 H6         693.1898  -731.9884   252.8762 H6            1 RES     
   14134 H6         690.4364  -733.0123   251.9120 H6            1 RES     
   14135 H6         690.8345  -731.3889   252.5387 H6            1 RES     
   14136 H6         691.0099  -734.0378   254.1248 H6            1 RES     
   14137 H6         691.4347  -732.3977   254.7600 H6            1 RES     
   14138 H6         689.0822  -731.6416   254.3292 H6            1 RES     
   14139 H6         689.1296  -733.0803   255.4179 H6            1 RES     
   14140 H6         688.6737  -733.2820   253.6839 H6            1 RES     
   14141 H6         694.4521  -735.9413   250.0045 H6            1 RES     
   14142 H6         694.3947  -734.1744   249.6534 H6            1 RES     
   14143 H6         693.6773  -736.4687   247.7479 H6            1 RES     
   14144 H6         693.7526  -734.6844   247.3334 H6            1 RES     
   14145 H6         696.1765  -734.6908   247.8222 H6            1 RES     
   14146 H6         696.0919  -736.4451   248.2627 H6            1 RES     
   14147 H6         695.2672  -736.9982   245.9673 H6            1 RES     
   14148 H6         695.3403  -735.2443   245.5312 H6            1 RES     
   14149 H6         697.8232  -735.2573   245.9324 H6            1 RES     
   14150 H6         697.7271  -736.9875   246.4273 H6            1 RES     
   14151 H6         696.9526  -737.6451   244.1611 H6            1 RES     
   14152 H6         698.5549  -736.8213   244.1447 H6            1 RES     
   14153 H6         697.4564  -734.6719   243.4450 H6            1 RES     
   14154 H6         695.8544  -735.5085   243.3926 H6            1 RES     
   14155 H6         696.8400  -735.3625   241.1416 H6            1 RES     
   14156 H6         698.3136  -736.2443   241.6973 H6            1 RES     
   14157 H6         696.7083  -737.0841   241.6682 H6            1 RES     
   14158 C0         693.0061  -745.9524   242.6134 C0            1 RES     
   14159 C1         693.3179  -744.4544   242.7249 C1            1 RES     
   14160 C1         694.3561  -744.0720   241.9487 C1            1 RES     
   14161 S2         694.6660  -742.4329   242.0620 S2            1 RES     
   14162 C1         693.3881  -742.1877   243.1652 C1            1 RES     
   14163 C1         692.7351  -743.3977   243.4270 C1            1 RES     
   14164 C1         694.8474  -745.2168   241.2715 C1            1 RES     
   14165 C1         694.1338  -746.3204   241.6414 C1            1 RES     
   14166 C1         694.5993  -747.4907   241.0331 C1            1 RES     
   14167 C1         695.7090  -747.2284   240.1894 C1            1 RES     
   14168 S2         696.0564  -745.5569   240.1878 S2            1 RES     
   14169 H3         691.8871  -743.5019   244.0895 H3            1 RES     
   14170 H3         694.1602  -748.4608   241.2109 H3            1 RES     
   14171 N4         698.1208  -748.6265   237.6505 N4            1 RES     
   14172 C1         697.3315  -747.7616   238.3492 C1            1 RES     
   14173 C1         696.5355  -748.2054   239.4307 C1            1 RES     
   14174 C1         696.6103  -749.5700   239.7636 C1            1 RES     
   14175 N4         695.9516  -750.1488   240.7993 N4            1 RES     
   14176 S2         696.4625  -751.7187   240.7199 S2            1 RES     
   14177 N4         697.4952  -751.7317   239.4312 N4            1 RES     
   14178 C1         697.4593  -750.4404   239.0229 C1            1 RES     
   14179 C1         698.2042  -749.9479   237.9599 C1            1 RES     
   14180 H5         697.3207  -746.7242   238.0439 H5            1 RES     
   14181 C0         691.6009  -745.9778   241.8989 C0            1 RES     
   14182 C0         690.8419  -747.1967   241.2655 C0            1 RES     
   14183 C0         689.7817  -746.6669   240.2319 C0            1 RES     
   14184 C0         688.4477  -746.0343   240.7282 C0            1 RES     
   14185 C0         688.4875  -744.6968   241.4963 C0            1 RES     
   14186 C0         689.1941  -743.5341   240.7731 C0            1 RES     
   14187 C0         688.5144  -743.1381   239.4557 C0            1 RES     
   14188 C0         689.2237  -741.9468   238.8155 C0            1 RES     
   14189 C0         690.1089  -748.1628   242.2396 C0            1 RES     
   14190 C0         690.9681  -749.2737   242.8364 C0            1 RES     
   14191 C0         690.1645  -750.0823   243.8716 C0            1 RES     
   14192 C0         691.0158  -751.1747   244.5376 C0            1 RES     
   14193 C0         690.2634  -751.8017   245.7242 C0            1 RES     
   14194 C0         691.1225  -752.7642   246.5651 C0            1 RES     
   14195 C0         692.2668  -752.0429   247.3049 C0            1 RES     
   14196 C0         693.0313  -752.9921   248.2222 C0            1 RES     
   14197 H6         690.9078  -745.4539   242.5720 H6            1 RES     
   14198 H6         691.7778  -745.3232   241.0171 H6            1 RES     
   14199 H6         691.5651  -747.7650   240.6392 H6            1 RES     
   14200 H6         689.4670  -747.5530   239.6358 H6            1 RES     
   14201 H6         690.2666  -745.9835   239.5020 H6            1 RES     
   14202 H6         687.9028  -746.7706   241.3558 H6            1 RES     
   14203 H6         687.8178  -745.8759   239.8271 H6            1 RES     
   14204 H6         688.9420  -744.8462   242.4896 H6            1 RES     
   14205 H6         687.4392  -744.3906   241.7054 H6            1 RES     
   14206 H6         690.2533  -743.7847   240.5797 H6            1 RES     
   14207 H6         689.1769  -742.6554   241.4548 H6            1 RES     
   14208 H6         688.5401  -743.9849   238.7390 H6            1 RES     
   14209 H6         687.4558  -742.8620   239.6526 H6            1 RES     
   14210 H6         689.2021  -741.0703   239.4979 H6            1 RES     
   14211 H6         688.7121  -741.6725   237.8690 H6            1 RES     
   14212 H6         690.2802  -742.2043   238.5874 H6            1 RES     
   14213 H6         689.3210  -748.7182   241.6824 H6            1 RES     
   14214 H6         689.6025  -747.5597   243.0252 H6            1 RES     
   14215 H6         691.3437  -749.9384   242.0282 H6            1 RES     
   14216 H6         691.8187  -748.8228   243.3291 H6            1 RES     
   14217 H6         689.8259  -749.3698   244.6569 H6            1 RES     
   14218 H6         689.2676  -750.5436   243.4036 H6            1 RES     
   14219 H6         691.3028  -751.9543   243.7995 H6            1 RES     
   14220 H6         691.9422  -750.7138   244.9018 H6            1 RES     
   14221 H6         689.8921  -751.0025   246.4036 H6            1 RES     
   14222 H6         689.3804  -752.3501   245.3284 H6            1 RES     
   14223 H6         691.5257  -753.5769   245.9238 H6            1 RES     
   14224 H6         690.4563  -753.2199   247.3299 H6            1 RES     
   14225 H6         691.8474  -751.2199   247.9253 H6            1 RES     
   14226 H6         692.9913  -751.6169   246.5861 H6            1 RES     
   14227 H6         693.8386  -752.4345   248.7396 H6            1 RES     
   14228 H6         692.3507  -753.4229   248.9875 H6            1 RES     
   14229 H6         693.4881  -753.8150   247.6303 H6            1 RES     
   14230 C0         693.0367  -746.5257   244.0879 C0            1 RES     
   14231 C0         693.8760  -747.7596   244.5590 C0            1 RES     
   14232 C0         693.1848  -748.4525   245.7845 C0            1 RES     
   14233 C0         693.2243  -747.8168   247.1962 C0            1 RES     
   14234 C0         692.4040  -746.5329   247.4355 C0            1 RES     
   14235 C0         690.9004  -746.6249   247.1001 C0            1 RES     
   14236 C0         690.1510  -747.7075   247.8877 C0            1 RES     
   14237 C0         688.6646  -747.6960   247.5361 C0            1 RES     
   14238 C0         695.3661  -747.5127   244.9369 C0            1 RES     
   14239 C0         696.2750  -747.1498   243.7746 C0            1 RES     
   14240 C0         697.7499  -747.1020   244.1759 C0            1 RES     
   14241 C0         698.6047  -746.7814   242.9444 C0            1 RES     
   14242 C0         700.0967  -746.7282   243.2947 C0            1 RES     
   14243 C0         700.9880  -746.4731   242.0673 C0            1 RES     
   14244 C0         700.7303  -745.1102   241.4050 C0            1 RES     
   14245 C0         701.6847  -744.8782   240.2385 C0            1 RES     
   14246 H6         693.2482  -745.7167   244.8085 H6            1 RES     
   14247 H6         691.9765  -746.7661   244.2642 H6            1 RES     
   14248 H6         693.8566  -748.5138   243.7481 H6            1 RES     
   14249 H6         693.6953  -749.4333   245.9003 H6            1 RES     
   14250 H6         692.1274  -748.6662   245.5543 H6            1 RES     
   14251 H6         694.2761  -747.6392   247.4997 H6            1 RES     
   14252 H6         692.8317  -748.5835   247.8983 H6            1 RES     
   14253 H6         692.8472  -745.6912   246.8768 H6            1 RES     
   14254 H6         692.5034  -746.2697   248.5110 H6            1 RES     
   14255 H6         690.7506  -746.8094   246.0219 H6            1 RES     
   14256 H6         690.4465  -745.6364   247.3326 H6            1 RES     
   14257 H6         690.5559  -748.7113   247.6411 H6            1 RES     
   14258 H6         690.2676  -747.5265   248.9779 H6            1 RES     
   14259 H6         688.2155  -746.7113   247.7879 H6            1 RES     
   14260 H6         688.1366  -748.4853   248.1105 H6            1 RES     
   14261 H6         688.5225  -747.8915   246.4511 H6            1 RES     
   14262 H6         695.7649  -748.4668   245.3487 H6            1 RES     
   14263 H6         695.4438  -746.7339   245.7263 H6            1 RES     
   14264 H6         696.1715  -747.9343   242.9988 H6            1 RES     
   14265 H6         695.9890  -746.1542   243.3978 H6            1 RES     
   14266 H6         697.9007  -746.3256   244.9568 H6            1 RES     
   14267 H6         698.0567  -748.0909   244.5852 H6            1 RES     
   14268 H6         698.4422  -747.5649   242.1707 H6            1 RES     
   14269 H6         698.2744  -745.8023   242.5401 H6            1 RES     
   14270 H6         700.2763  -745.9385   244.0565 H6            1 RES     
   14271 H6         700.3935  -747.7073   243.7313 H6            1 RES     
   14272 H6         700.8353  -747.2864   241.3238 H6            1 RES     
   14273 H6         702.0462  -746.5080   242.4072 H6            1 RES     
   14274 H6         700.8728  -744.3002   242.1528 H6            1 RES     
   14275 H6         699.6943  -745.0590   241.0106 H6            1 RES     
   14276 H6         701.4763  -743.8884   239.7803 H6            1 RES     
   14277 H6         702.7374  -744.8923   240.5925 H6            1 RES     
   14278 H6         701.5469  -745.6646   239.4659 H6            1 RES     
   14279 C0         700.0190  -754.0837   234.9904 C0            1 RES     
   14280 C1         699.8881  -752.7914   235.8066 C1            1 RES     
   14281 C1         701.0337  -752.0757   235.8497 C1            1 RES     
   14282 S2         700.8668  -750.6584   236.7209 S2            1 RES     
   14283 C1         699.2237  -750.9678   237.0596 C1            1 RES     
   14284 C1         698.8297  -752.1800   236.4813 C1            1 RES     
   14285 C1         702.0226  -752.7790   235.1162 C1            1 RES     
   14286 C1         701.5044  -753.9466   234.6342 C1            1 RES     
   14287 C1         702.4474  -754.7043   233.9323 C1            1 RES     
   14288 C1         703.7129  -754.0636   233.9109 C1            1 RES     
   14289 S2         703.6198  -752.5646   234.7227 S2            1 RES     
   14290 H3         697.8324  -752.5919   236.5486 H3            1 RES     
   14291 H3         702.2190  -755.6598   233.4845 H3            1 RES     
   14292 N4         707.2301  -754.1071   232.5528 N4            1 RES     
   14293 C1         706.0383  -753.6699   233.0506 C1            1 RES     
   14294 C1         704.9892  -754.5728   233.3411 C1            1 RES     
   14295 C1         705.2376  -755.9383   233.1126 C1            1 RES     
   14296 N4         704.3600  -756.9378   233.3818 N4            1 RES     
   14297 S2         705.2131  -758.2900   232.9629 S2            1 RES     
   14298 N4         706.6656  -757.6953   232.4489 N4            1 RES     
   14299 C1         706.5006  -756.3601   232.6088 C1            1 RES     
   14300 C1         707.4857  -755.4233   232.3268 C1            1 RES     
   14301 H5         705.9119  -752.6071   233.2057 H5            1 RES     
   14302 C0         699.1008  -753.8154   233.7371 C0            1 RES     
   14303 C0         698.9963  -754.6331   232.4017 C0            1 RES     
   14304 C0         698.3829  -753.7174   231.2798 C0            1 RES     
   14305 C0         696.8564  -753.4083   231.2645 C0            1 RES     
   14306 C0         696.2472  -752.5622   232.4018 C0            1 RES     
   14307 C0         696.8951  -751.1823   232.6261 C0            1 RES     
   14308 C0         696.7666  -750.2491   231.4150 C0            1 RES     
   14309 C0         697.3749  -748.8812   231.7166 C0            1 RES     
   14310 C0         698.1720  -755.9517   232.4372 C0            1 RES     
   14311 C0         698.9332  -757.1925   232.8948 C0            1 RES     
   14312 C0         697.9839  -758.3999   233.0046 C0            1 RES     
   14313 C0         698.7046  -759.6556   233.5198 C0            1 RES     
   14314 C0         697.6925  -760.7684   233.8433 C0            1 RES     
   14315 C0         698.3148  -761.9873   234.5495 C0            1 RES     
   14316 C0         698.8290  -761.6525   235.9640 C0            1 RES     
   14317 C0         699.3330  -762.8962   236.6892 C0            1 RES     
   14318 H6         698.0850  -753.6685   234.1302 H6            1 RES     
   14319 H6         699.4741  -752.8289   233.3837 H6            1 RES     
   14320 H6         700.0291  -754.8400   232.0429 H6            1 RES     
   14321 H6         698.5717  -754.2452   230.3178 H6            1 RES     
   14322 H6         698.9540  -752.7671   231.2064 H6            1 RES     
   14323 H6         696.2890  -754.3611   231.2083 H6            1 RES     
   14324 H6         696.6511  -752.8740   230.3127 H6            1 RES     
   14325 H6         696.2581  -753.1342   233.3443 H6            1 RES     
   14326 H6         695.1699  -752.4077   232.1743 H6            1 RES     
   14327 H6         697.9622  -751.2942   232.8925 H6            1 RES     
   14328 H6         696.3819  -750.7076   233.4910 H6            1 RES     
   14329 H6         697.2946  -750.6794   230.5389 H6            1 RES     
   14330 H6         695.6925  -750.1161   231.1613 H6            1 RES     
   14331 H6         696.8580  -748.4088   232.5791 H6            1 RES     
   14332 H6         697.2645  -748.2203   230.8312 H6            1 RES     
   14333 H6         698.4560  -748.9835   231.9519 H6            1 RES     
   14334 H6         697.8522  -756.2129   231.4031 H6            1 RES     
   14335 H6         697.2527  -755.7807   233.0397 H6            1 RES     
   14336 H6         699.7625  -757.4111   232.1872 H6            1 RES     
   14337 H6         699.3600  -756.9938   233.8684 H6            1 RES     
   14338 H6         697.1854  -758.1275   233.7306 H6            1 RES     
   14339 H6         697.5087  -758.6201   232.0239 H6            1 RES     
   14340 H6         699.4539  -760.0105   232.7799 H6            1 RES     
   14341 H6         699.2497  -759.3882   234.4334 H6            1 RES     
   14342 H6         696.8897  -760.3715   234.5038 H6            1 RES     
   14343 H6         697.2194  -761.0986   232.8923 H6            1 RES     
   14344 H6         699.1325  -762.4127   233.9292 H6            1 RES     
   14345 H6         697.5163  -762.7546   234.6500 H6            1 RES     
   14346 H6         698.0036  -761.2089   236.5639 H6            1 RES     
   14347 H6         699.6659  -760.9311   235.9163 H6            1 RES     
   14348 H6         699.6862  -762.6146   237.7023 H6            1 RES     
   14349 H6         698.5160  -763.6420   236.7927 H6            1 RES     
   14350 H6         700.1790  -763.3519   236.1298 H6            1 RES     
   14351 C0         699.5561  -755.2610   235.9408 C0            1 RES     
   14352 C0         700.3826  -756.5550   236.2428 C0            1 RES     
   14353 C0         699.4231  -757.7428   236.6011 C0            1 RES     
   14354 C0         698.7072  -757.8134   237.9726 C0            1 RES     
   14355 C0         697.5837  -756.7956   238.2564 C0            1 RES     
   14356 C0         696.4344  -756.7603   237.2271 C0            1 RES     
   14357 C0         695.7026  -758.0988   237.0635 C0            1 RES     
   14358 C0         694.5506  -757.9635   236.0697 C0            1 RES     
   14359 C0         701.4653  -756.4718   237.3587 C0            1 RES     
   14360 C0         702.6665  -755.6019   237.0285 C0            1 RES     
   14361 C0         703.7733  -755.7070   238.0785 C0            1 RES     
   14362 C0         704.9668  -754.8448   237.6516 C0            1 RES     
   14363 C0         706.1088  -754.9217   238.6720 C0            1 RES     
   14364 C0         707.3480  -754.1188   238.2407 C0            1 RES     
   14365 C0         707.0801  -752.6100   238.1212 C0            1 RES     
   14366 C0         708.3540  -751.8539   237.7595 C0            1 RES     
   14367 H6         699.2426  -754.8607   236.9206 H6            1 RES     
   14368 H6         698.6121  -755.5792   235.4713 H6            1 RES     
   14369 H6         700.8891  -756.8612   235.3067 H6            1 RES     
   14370 H6         700.0531  -758.6580   236.5621 H6            1 RES     
   14371 H6         698.6478  -757.8533   235.8243 H6            1 RES     
   14372 H6         699.4549  -757.7683   238.7904 H6            1 RES     
   14373 H6         698.2483  -758.8235   238.0371 H6            1 RES     
   14374 H6         698.0081  -755.7824   238.3579 H6            1 RES     
   14375 H6         697.1515  -757.0450   239.2498 H6            1 RES     
   14376 H6         696.8052  -756.4407   236.2375 H6            1 RES     
   14377 H6         695.7042  -755.9944   237.5698 H6            1 RES     
   14378 H6         696.3997  -758.8731   236.6800 H6            1 RES     
   14379 H6         695.2986  -758.4278   238.0450 H6            1 RES     
   14380 H6         693.8172  -757.2096   236.4284 H6            1 RES     
   14381 H6         694.0330  -758.9391   235.9595 H6            1 RES     
   14382 H6         694.9335  -757.6504   235.0742 H6            1 RES     
   14383 H6         701.8657  -757.4996   237.5077 H6            1 RES     
   14384 H6         701.0129  -756.1326   238.3157 H6            1 RES     
   14385 H6         703.0919  -755.9529   236.0673 H6            1 RES     
   14386 H6         702.3400  -754.5503   236.9777 H6            1 RES     
   14387 H6         703.3890  -755.3645   239.0636 H6            1 RES     
   14388 H6         704.1027  -756.7669   238.1676 H6            1 RES     
   14389 H6         705.3395  -755.1973   236.6638 H6            1 RES     
   14390 H6         704.6171  -753.7965   237.5512 H6            1 RES     
   14391 H6         705.7547  -754.5580   239.6611 H6            1 RES     
   14392 H6         706.4155  -755.9853   238.7814 H6            1 RES     
   14393 H6         707.7236  -754.5113   237.2698 H6            1 RES     
   14394 H6         708.1365  -754.2795   239.0082 H6            1 RES     
   14395 H6         706.6946  -752.2227   239.0891 H6            1 RES     
   14396 H6         706.3303  -752.4097   237.3280 H6            1 RES     
   14397 H6         708.1313  -750.7689   237.6802 H6            1 RES     
   14398 H6         709.1268  -752.0026   238.5433 H6            1 RES     
   14399 H6         708.7486  -752.2088   236.7834 H6            1 RES     
   14400 C0         711.3150  -757.7266   229.2858 C0            1 RES     
   14401 C1         710.5468  -756.9465   230.3604 C1            1 RES     
   14402 C1         711.3593  -756.3017   231.2268 C1            1 RES     
   14403 S2         710.5068  -755.4357   232.3752 S2            1 RES     
   14404 C1         709.0010  -755.9023   231.7231 C1            1 RES     
   14405 C1         709.1904  -756.7306   230.6109 C1            1 RES     
   14406 C1         712.7018  -756.5745   230.8610 C1            1 RES     
   14407 C1         712.7313  -757.4094   229.7812 C1            1 RES     
   14408 C1         714.0332  -757.7461   229.3969 C1            1 RES     
   14409 C1         714.9956  -757.1363   230.2421 C1            1 RES     
   14410 S2         714.2133  -756.1689   231.4113 S2            1 RES     
   14411 H3         708.3884  -757.1510   230.0202 H3            1 RES     
   14412 H3         714.2508  -758.4007   228.5664 H3            1 RES     
   14413 N4         718.6553  -756.4806   230.8695 N4            1 RES     
   14414 C1         717.2988  -756.3430   230.8492 C1            1 RES     
   14415 C1         716.4736  -757.3034   230.2192 C1            1 RES     
   14416 C1         717.1121  -758.4120   229.6345 C1            1 RES     
   14417 N4         716.4687  -759.4449   229.0340 N4            1 RES     
   14418 S2         717.7133  -760.4417   228.5989 S2            1 RES     
   14419 N4         719.0591  -759.6458   229.1308 N4            1 RES     
   14420 C1         718.5298  -758.5315   229.6907 C1            1 RES     
   14421 C1         719.2874  -757.5462   230.3093 C1            1 RES     
   14422 H5         716.8700  -755.4685   231.3190 H5            1 RES     
   14423 C0         710.9811  -756.9416   227.9599 C0            1 RES     
   14424 C0         711.6511  -757.0692   226.5465 C0            1 RES     
   14425 C0         711.3739  -755.7595   225.7212 C0            1 RES     
   14426 C0         709.9733  -755.5118   225.0864 C0            1 RES     
   14427 C0         708.7571  -755.2856   226.0085 C0            1 RES     
   14428 C0         708.8999  -754.1419   227.0311 C0            1 RES     
   14429 C0         709.0800  -752.7650   226.3783 C0            1 RES     
   14430 C0         709.1583  -751.6679   227.4377 C0            1 RES     
   14431 C0         711.2293  -758.2798   225.6655 C0            1 RES     
   14432 C0         711.9949  -759.5757   225.9163 C0            1 RES     
   14433 C0         711.4059  -760.7235   225.0758 C0            1 RES     
   14434 C0         712.1153  -762.0597   225.3462 C0            1 RES     
   14435 C0         711.3582  -763.2213   224.6792 C0            1 RES     
   14436 C0         711.8918  -764.6132   225.0659 C0            1 RES     
   14437 C0         711.6609  -764.9426   226.5543 C0            1 RES     
   14438 C0         712.0890  -766.3680   226.8889 C0            1 RES     
   14439 H6         709.8918  -757.0116   227.8311 H6            1 RES     
   14440 H6         711.2227  -755.8937   228.2442 H6            1 RES     
   14441 H6         712.7549  -757.0679   226.6873 H6            1 RES     
   14442 H6         712.0726  -755.7908   224.8550 H6            1 RES     
   14443 H6         711.6781  -754.8659   226.3074 H6            1 RES     
   14444 H6         709.7278  -756.3488   224.3994 H6            1 RES     
   14445 H6         710.0710  -754.6096   224.4459 H6            1 RES     
   14446 H6         708.5024  -756.2215   226.5326 H6            1 RES     
   14447 H6         707.8757  -755.0695   225.3660 H6            1 RES     
   14448 H6         709.7457  -754.3377   227.7156 H6            1 RES     
   14449 H6         707.9715  -754.1214   227.6431 H6            1 RES     
   14450 H6         710.0155  -752.7405   225.7818 H6            1 RES     
   14451 H6         708.2177  -752.5562   225.7085 H6            1 RES     
   14452 H6         708.2281  -751.6485   228.0450 H6            1 RES     
   14453 H6         709.2806  -750.6808   226.9442 H6            1 RES     
   14454 H6         710.0272  -751.8409   228.1082 H6            1 RES     
   14455 H6         711.4509  -758.0524   224.5983 H6            1 RES     
   14456 H6         710.1296  -758.4208   225.7572 H6            1 RES     
   14457 H6         713.0718  -759.4317   225.6801 H6            1 RES     
   14458 H6         711.9072  -759.8291   226.9640 H6            1 RES     
   14459 H6         710.3353  -760.8272   225.3621 H6            1 RES     
   14460 H6         711.4594  -760.4872   223.9907 H6            1 RES     
   14461 H6         713.1684  -762.0244   224.9933 H6            1 RES     
   14462 H6         712.1401  -762.2220   226.4308 H6            1 RES     
   14463 H6         710.2821  -763.1844   224.9601 H6            1 RES     
   14464 H6         711.4272  -763.0964   223.5761 H6            1 RES     
   14465 H6         712.9706  -764.6934   224.8128 H6            1 RES     
   14466 H6         711.3339  -765.3611   224.4610 H6            1 RES     
   14467 H6         710.5797  -764.8372   226.7946 H6            1 RES     
   14468 H6         712.2408  -764.2587   227.2017 H6            1 RES     
   14469 H6         711.9005  -766.5669   227.9637 H6            1 RES     
   14470 H6         711.5085  -767.0983   226.2855 H6            1 RES     
   14471 H6         713.1739  -766.5019   226.6856 H6            1 RES     
   14472 C0         710.7868  -759.2167   229.3526 C0            1 RES     
   14473 C0         711.6882  -760.4882   229.4925 C0            1 RES     
   14474 C0         710.9801  -761.7312   228.8495 C0            1 RES     
   14475 C0         709.7893  -762.4306   229.5502 C0            1 RES     
   14476 C0         708.4453  -761.6771   229.6190 C0            1 RES     
   14477 C0         707.8698  -761.2064   228.2665 C0            1 RES     
   14478 C0         707.6181  -762.3426   227.2667 C0            1 RES     
   14479 C0         707.0014  -761.7988   225.9794 C0            1 RES     
   14480 C0         712.1406  -760.8938   230.9261 C0            1 RES     
   14481 C0         713.1234  -759.9415   231.5862 C0            1 RES     
   14482 C0         713.6696  -760.4847   232.9072 C0            1 RES     
   14483 C0         714.6886  -759.4957   233.4847 C0            1 RES     
   14484 C0         715.2714  -759.9996   234.8105 C0            1 RES     
   14485 C0         716.3463  -759.0604   235.3839 C0            1 RES     
   14486 C0         715.8044  -757.6672   235.7413 C0            1 RES     
   14487 C0         716.8912  -756.8004   236.3681 C0            1 RES     
   14488 H6         710.0018  -759.3100   230.1231 H6            1 RES     
   14489 H6         710.2371  -759.3097   228.4029 H6            1 RES     
   14490 H6         712.6009  -760.3263   228.8864 H6            1 RES     
   14491 H6         711.7646  -762.5151   228.7724 H6            1 RES     
   14492 H6         710.6589  -761.4961   227.8208 H6            1 RES     
   14493 H6         710.0846  -762.7431   230.5724 H6            1 RES     
   14494 H6         709.6011  -763.3708   228.9884 H6            1 RES     
   14495 H6         708.5321  -760.8099   230.2953 H6            1 RES     
   14496 H6         707.7052  -762.3586   230.0919 H6            1 RES     
   14497 H6         708.5379  -760.4655   227.7937 H6            1 RES     
   14498 H6         706.9043  -760.6951   228.4756 H6            1 RES     
   14499 H6         708.5739  -762.8437   227.0063 H6            1 RES     
   14500 H6         706.9266  -763.0890   227.7135 H6            1 RES     
   14501 H6         706.0292  -761.3056   226.1949 H6            1 RES     
   14502 H6         706.8279  -762.6307   225.2655 H6            1 RES     
   14503 H6         707.6841  -761.0608   225.5053 H6            1 RES     
   14504 H6         712.6714  -761.8685   230.8415 H6            1 RES     
   14505 H6         711.2585  -761.0344   231.5876 H6            1 RES     
   14506 H6         713.9866  -759.8100   230.9037 H6            1 RES     
   14507 H6         712.6099  -758.9883   231.7928 H6            1 RES     
   14508 H6         712.8342  -760.6336   233.6251 H6            1 RES     
   14509 H6         714.1715  -761.4625   232.7287 H6            1 RES     
   14510 H6         715.5174  -759.3547   232.7551 H6            1 RES     
   14511 H6         714.1766  -758.5235   233.6400 H6            1 RES     
   14512 H6         714.4556  -760.1307   235.5544 H6            1 RES     
   14513 H6         715.7457  -760.9904   234.6355 H6            1 RES     
   14514 H6         717.1799  -758.9628   234.6536 H6            1 RES     
   14515 H6         716.7476  -759.5328   236.3072 H6            1 RES     
   14516 H6         714.9646  -757.7684   236.4625 H6            1 RES     
   14517 H6         715.4384  -757.1470   234.8319 H6            1 RES     
   14518 H6         716.4723  -755.8022   236.6158 H6            1 RES     
   14519 H6         717.2688  -757.2697   237.3013 H6            1 RES     
   14520 H6         717.7346  -756.6665   235.6575 H6            1 RES     
   14521 C0         724.4714  -758.1373   228.8974 C0            1 RES     
   14522 C1         723.1587  -757.9451   229.6676 C1            1 RES     
   14523 C1         723.3473  -757.7435   230.9906 C1            1 RES     
   14524 S2         721.9092  -757.5101   231.8107 S2            1 RES     
   14525 C1         720.9814  -757.6656   230.3876 C1            1 RES     
   14526 C1         721.8159  -757.8969   229.2880 C1            1 RES     
   14527 C1         724.7404  -757.7907   231.2510 C1            1 RES     
   14528 C1         725.4230  -758.0461   230.0966 C1            1 RES     
   14529 C1         726.8036  -758.1428   230.2982 C1            1 RES     
   14530 C1         727.1406  -757.9593   231.6639 C1            1 RES     
   14531 S2         725.7309  -757.6434   232.5735 S2            1 RES     
   14532 H3         721.4660  -758.0230   228.2729 H3            1 RES     
   14533 H3         727.5019  -758.3460   229.5003 H3            1 RES     
   14534 N4         729.9157  -757.5749   234.1874 N4            1 RES     
   14535 C1         728.7066  -757.4740   233.5652 C1            1 RES     
   14536 C1         728.4814  -758.0643   232.2999 C1            1 RES     
   14537 C1         729.5509  -758.7738   231.7244 C1            1 RES     
   14538 N4         729.4893  -759.4378   230.5426 N4            1 RES     
   14539 S2         730.9982  -760.1014   230.4221 S2            1 RES     
   14540 N4         731.7590  -759.6016   231.8001 N4            1 RES     
   14541 C1         730.7940  -758.8733   232.4114 C1            1 RES     
   14542 C1         730.9591  -758.2572   233.6445 C1            1 RES     
   14543 H5         727.9246  -756.9165   234.0623 H5            1 RES     
   14544 C0         724.5560  -756.8454   227.9976 C0            1 RES     
   14545 C0         725.7718  -756.3047   227.1654 C0            1 RES     
   14546 C0         725.5686  -754.7701   226.8880 C0            1 RES     
   14547 C0         724.5556  -754.2942   225.8049 C0            1 RES     
   14548 C0         723.0479  -754.5372   226.0242 C0            1 RES     
   14549 C0         722.4667  -753.9766   227.3365 C0            1 RES     
   14550 C0         722.5739  -752.4496   227.4425 C0            1 RES     
   14551 C0         721.9317  -751.9487   228.7344 C0            1 RES     
   14552 C0         726.0650  -756.9954   225.8028 C0            1 RES     
   14553 C0         726.9355  -758.2467   225.8723 C0            1 RES     
   14554 C0         727.0506  -758.9036   224.4844 C0            1 RES     
   14555 C0         727.8730  -760.2010   224.5263 C0            1 RES     
   14556 C0         727.7709  -760.9524   223.1876 C0            1 RES     
   14557 C0         728.4038  -762.3561   223.2138 C0            1 RES     
   14558 C0         727.6484  -763.3282   224.1421 C0            1 RES     
   14559 C0         728.2191  -764.7406   224.0634 C0            1 RES     
   14560 H6         723.6757  -756.8744   227.3402 H6            1 RES     
   14561 H6         724.3974  -756.0341   228.7419 H6            1 RES     
   14562 H6         726.6760  -756.3420   227.8128 H6            1 RES     
   14563 H6         726.5543  -754.3903   226.5362 H6            1 RES     
   14564 H6         725.3731  -754.2314   227.8401 H6            1 RES     
   14565 H6         724.8318  -754.7354   224.8241 H6            1 RES     
   14566 H6         724.6985  -753.1979   225.6976 H6            1 RES     
   14567 H6         722.8253  -755.6145   225.9509 H6            1 RES     
   14568 H6         722.4993  -754.0741   225.1751 H6            1 RES     
   14569 H6         722.9615  -754.4415   228.2090 H6            1 RES     
   14570 H6         721.3909  -754.2563   227.3732 H6            1 RES     
   14571 H6         723.6386  -752.1367   227.4388 H6            1 RES     
   14572 H6         722.0553  -751.9803   226.5786 H6            1 RES     
   14573 H6         720.8567  -752.2273   228.7662 H6            1 RES     
   14574 H6         722.0135  -750.8426   228.7872 H6            1 RES     
   14575 H6         722.4473  -752.3863   229.6160 H6            1 RES     
   14576 H6         726.6577  -756.3050   225.1611 H6            1 RES     
   14577 H6         725.0989  -757.1877   225.2860 H6            1 RES     
   14578 H6         727.9423  -757.9870   226.2659 H6            1 RES     
   14579 H6         726.4743  -758.9485   226.5538 H6            1 RES     
   14580 H6         726.0183  -759.1499   224.1487 H6            1 RES     
   14581 H6         727.5018  -758.2010   223.7503 H6            1 RES     
   14582 H6         728.9346  -759.9859   224.7750 H6            1 RES     
   14583 H6         727.4729  -760.8356   225.3266 H6            1 RES     
   14584 H6         726.7028  -761.0710   222.8991 H6            1 RES     
   14585 H6         728.2698  -760.3407   222.4039 H6            1 RES     
   14586 H6         729.4727  -762.2886   223.5087 H6            1 RES     
   14587 H6         728.3509  -762.7621   222.1800 H6            1 RES     
   14588 H6         726.5767  -763.3675   223.8458 H6            1 RES     
   14589 H6         727.7176  -762.9979   225.1953 H6            1 RES     
   14590 H6         727.6454  -765.4083   224.7381 H6            1 RES     
   14591 H6         728.1417  -765.1322   223.0265 H6            1 RES     
   14592 H6         729.2851  -764.7434   224.3796 H6            1 RES     
   14593 C0         724.3357  -759.5081   228.1189 C0            1 RES     
   14594 C0         725.3661  -760.6845   228.1768 C0            1 RES     
   14595 C0         725.3159  -761.5182   226.8492 C0            1 RES     
   14596 C0         724.1443  -762.4859   226.5505 C0            1 RES     
   14597 C0         722.7618  -761.8758   226.2416 C0            1 RES     
   14598 C0         722.7214  -760.8577   225.0825 C0            1 RES     
   14599 C0         723.1960  -761.4243   223.7380 C0            1 RES     
   14600 C0         723.0745  -760.3715   222.6381 C0            1 RES     
   14601 C0         725.2491  -761.6841   229.3648 C0            1 RES     
   14602 C0         725.6012  -761.1110   230.7272 C0            1 RES     
   14603 C0         725.6466  -762.1803   231.8195 C0            1 RES     
   14604 C0         726.0566  -761.5363   233.1489 C0            1 RES     
   14605 C0         726.1226  -762.5718   234.2779 C0            1 RES     
   14606 C0         726.5951  -761.9692   235.6120 C0            1 RES     
   14607 C0         725.6387  -760.9010   236.1659 C0            1 RES     
   14608 C0         726.1160  -760.3868   237.5199 C0            1 RES     
   14609 H6         723.3450  -759.9576   228.3058 H6            1 RES     
   14610 H6         724.2808  -759.1741   227.0709 H6            1 RES     
   14611 H6         726.3823  -760.2453   228.2073 H6            1 RES     
   14612 H6         726.2203  -762.1644   226.8679 H6            1 RES     
   14613 H6         725.4162  -760.8507   225.9767 H6            1 RES     
   14614 H6         724.0426  -763.2200   227.3754 H6            1 RES     
   14615 H6         724.4418  -763.0745   225.6561 H6            1 RES     
   14616 H6         722.3444  -761.4065   227.1485 H6            1 RES     
   14617 H6         722.0764  -762.7142   225.9903 H6            1 RES     
   14618 H6         723.3297  -759.9680   225.3218 H6            1 RES     
   14619 H6         721.6676  -760.5184   224.9743 H6            1 RES     
   14620 H6         724.2607  -761.7316   223.8052 H6            1 RES     
   14621 H6         722.5796  -762.3077   223.4648 H6            1 RES     
   14622 H6         722.0164  -760.0514   222.5247 H6            1 RES     
   14623 H6         723.4237  -760.7943   221.6732 H6            1 RES     
   14624 H6         723.6968  -759.4835   222.8825 H6            1 RES     
   14625 H6         725.9804  -762.5028   229.1808 H6            1 RES     
   14626 H6         724.2310  -762.1288   229.4008 H6            1 RES     
   14627 H6         726.6138  -760.6655   230.6621 H6            1 RES     
   14628 H6         724.8382  -760.3664   231.0070 H6            1 RES     
   14629 H6         724.6474  -762.6567   231.9193 H6            1 RES     
   14630 H6         726.3932  -762.9600   231.5466 H6            1 RES     
   14631 H6         727.0569  -761.0618   233.0338 H6            1 RES     
   14632 H6         725.3123  -760.7515   233.3965 H6            1 RES     
   14633 H6         725.1252  -763.0437   234.4144 H6            1 RES     
   14634 H6         726.8468  -763.3653   233.9893 H6            1 RES     
   14635 H6         727.6101  -761.5329   235.4820 H6            1 RES     
   14636 H6         726.6659  -762.7987   236.3493 H6            1 RES     
   14637 H6         724.6229  -761.3365   236.2844 H6            1 RES     
   14638 H6         725.5814  -760.0343   235.4752 H6            1 RES     
   14639 H6         725.4077  -759.6183   237.8952 H6            1 RES     
   14640 H6         726.1613  -761.2186   238.2545 H6            1 RES     
   14641 H6         727.1228  -759.9267   237.4240 H6            1 RES     
   14642 C0         736.2280  -758.0275   234.8288 C0            1 RES     
   14643 C1         734.7084  -758.2344   234.8690 C1            1 RES     
   14644 C1         734.2637  -758.6485   236.0761 C1            1 RES     
   14645 S2         732.6036  -758.8442   236.1104 S2            1 RES     
   14646 C1         732.4341  -758.3604   234.4832 C1            1 RES     
   14647 C1         733.6850  -758.0503   233.9372 C1            1 RES     
   14648 C1         735.3814  -758.7766   236.9393 C1            1 RES     
   14649 C1         736.5285  -758.4667   236.2671 C1            1 RES     
   14650 C1         737.6721  -758.6126   237.0590 C1            1 RES     
   14651 C1         737.3431  -759.0588   238.3647 C1            1 RES     
   14652 S2         735.6502  -759.2207   238.5148 S2            1 RES     
   14653 H3         733.8402  -757.7118   232.9223 H3            1 RES     
   14654 H3         738.6692  -758.4170   236.6942 H3            1 RES     
   14655 N4         738.6048  -759.7939   241.8410 N4            1 RES     
   14656 C1         737.7886  -759.4501   240.8042 C1            1 RES     
   14657 C1         738.2694  -759.4094   239.4748 C1            1 RES     
   14658 C1         739.6167  -759.7574   239.2698 C1            1 RES     
   14659 N4         740.2225  -759.8165   238.0569 N4            1 RES     
   14660 S2         741.7497  -760.3192   238.4400 S2            1 RES     
   14661 N4         741.7105  -760.4793   240.0833 N4            1 RES     
   14662 C1         740.4347  -760.1283   240.3744 C1            1 RES     
   14663 C1         739.9090  -760.1329   241.6594 C1            1 RES     
   14664 H5         736.7619  -759.1957   241.0289 H5            1 RES     
   14665 C0         736.3768  -756.4668   234.6620 C0            1 RES     
   14666 C0         737.6638  -755.5806   234.8084 C0            1 RES     
   14667 C0         737.2393  -754.0915   235.0836 C0            1 RES     
   14668 C0         736.7011  -753.2005   233.9250 C0            1 RES     
   14669 C0         735.3484  -753.5508   233.2706 C0            1 RES     
   14670 C0         734.1503  -753.6576   234.2335 C0            1 RES     
   14671 C0         733.8360  -752.3416   234.9573 C0            1 RES     
   14672 C0         732.6075  -752.4938   235.8515 C0            1 RES     
   14673 C0         738.6626  -755.5736   233.6160 C0            1 RES     
   14674 C0         739.6910  -756.7009   233.6114 C0            1 RES     
   14675 C0         740.5370  -756.6563   232.3255 C0            1 RES     
   14676 C0         741.5461  -757.8133   232.2582 C0            1 RES     
   14677 C0         742.2038  -757.8802   230.8688 C0            1 RES     
   14678 C0         743.0792  -759.1292   230.6561 C0            1 RES     
   14679 C0         742.2562  -760.4330   230.6425 C0            1 RES     
   14680 C0         743.1239  -761.6437   230.3138 C0            1 RES     
   14681 H6         735.8937  -756.2154   233.7073 H6            1 RES     
   14682 H6         735.7294  -756.0836   235.4813 H6            1 RES     
   14683 H6         738.1878  -755.8860   235.7414 H6            1 RES     
   14684 H6         738.1596  -753.5713   235.4330 H6            1 RES     
   14685 H6         736.5363  -754.0462   235.9429 H6            1 RES     
   14686 H6         737.4636  -753.1441   233.1199 H6            1 RES     
   14687 H6         736.6108  -752.1713   234.3328 H6            1 RES     
   14688 H6         735.4412  -754.4832   232.6898 H6            1 RES     
   14689 H6         735.1196  -752.7664   232.5164 H6            1 RES     
   14690 H6         734.3227  -754.4553   234.9792 H6            1 RES     
   14691 H6         733.2613  -753.9481   233.6317 H6            1 RES     
   14692 H6         734.6934  -752.0367   235.5924 H6            1 RES     
   14693 H6         733.6382  -751.5443   234.2084 H6            1 RES     
   14694 H6         731.7210  -752.7811   235.2466 H6            1 RES     
   14695 H6         732.3936  -751.5296   236.3589 H6            1 RES     
   14696 H6         732.7876  -753.2709   236.6250 H6            1 RES     
   14697 H6         739.2887  -754.6543   233.6668 H6            1 RES     
   14698 H6         738.0837  -755.5334   232.6670 H6            1 RES     
   14699 H6         740.3418  -756.6243   234.5096 H6            1 RES     
   14700 H6         739.1655  -757.6452   233.6514 H6            1 RES     
   14701 H6         739.8362  -756.7477   231.4655 H6            1 RES     
   14702 H6         741.0759  -755.6876   232.2398 H6            1 RES     
   14703 H6         742.3168  -757.7097   233.0520 H6            1 RES     
   14704 H6         741.0075  -758.7501   232.4469 H6            1 RES     
   14705 H6         741.4213  -757.8799   230.0777 H6            1 RES     
   14706 H6         742.8270  -756.9690   230.7324 H6            1 RES     
   14707 H6         743.8719  -759.1779   231.4330 H6            1 RES     
   14708 H6         743.5685  -759.0249   229.6630 H6            1 RES     
   14709 H6         741.4551  -760.3585   229.8740 H6            1 RES     
   14710 H6         741.7911  -760.6132   231.6296 H6            1 RES     
   14711 H6         742.4950  -762.5572   230.3069 H6            1 RES     
   14712 H6         743.5896  -761.5257   229.3120 H6            1 RES     
   14713 H6         743.9217  -761.7648   231.0789 H6            1 RES     
   14714 C0         736.7658  -758.9008   233.6239 C0            1 RES     
   14715 C0         737.9210  -759.9524   233.7168 C0            1 RES     
   14716 C0         738.6389  -760.0965   232.3298 C0            1 RES     
   14717 C0         737.9722  -760.8510   231.1531 C0            1 RES     
   14718 C0         736.7505  -760.1989   230.4740 C0            1 RES     
   14719 C0         736.9653  -758.7679   229.9375 C0            1 RES     
   14720 C0         738.0854  -758.6544   228.8952 C0            1 RES     
   14721 C0         738.1960  -757.2210   228.3791 C0            1 RES     
   14722 C0         737.5520  -761.3835   234.2066 C0            1 RES     
   14723 C0         737.1449  -761.4806   235.6672 C0            1 RES     
   14724 C0         736.9750  -762.9269   236.1340 C0            1 RES     
   14725 C0         736.6157  -762.9444   237.6242 C0            1 RES     
   14726 C0         736.4403  -764.3768   238.1429 C0            1 RES     
   14727 C0         736.1434  -764.4319   239.6512 C0            1 RES     
   14728 C0         734.8188  -763.7518   240.0325 C0            1 RES     
   14729 C0         734.5388  -763.8946   241.5247 C0            1 RES     
   14730 H6         735.9277  -759.4087   233.1158 H6            1 RES     
   14731 H6         737.0833  -758.1304   232.9039 H6            1 RES     
   14732 H6         738.6915  -759.5513   234.4039 H6            1 RES     
   14733 H6         739.5748  -760.6605   232.5350 H6            1 RES     
   14734 H6         738.9383  -759.1046   231.9513 H6            1 RES     
   14735 H6         737.7076  -761.8809   231.4678 H6            1 RES     
   14736 H6         738.7517  -760.9645   230.3693 H6            1 RES     
   14737 H6         735.8893  -760.2001   231.1634 H6            1 RES     
   14738 H6         736.4577  -760.8484   229.6207 H6            1 RES     
   14739 H6         737.1837  -758.0689   230.7637 H6            1 RES     
   14740 H6         736.0099  -758.4405   229.4712 H6            1 RES     
   14741 H6         739.0601  -758.9344   229.3470 H6            1 RES     
   14742 H6         737.8729  -759.3325   228.0409 H6            1 RES     
   14743 H6         737.2437  -756.9084   227.8993 H6            1 RES     
   14744 H6         739.0113  -757.1537   227.6291 H6            1 RES     
   14745 H6         738.4249  -756.5255   229.2155 H6            1 RES     
   14746 H6         738.4636  -762.0136   234.1022 H6            1 RES     
   14747 H6         736.7529  -761.8195   233.5686 H6            1 RES     
   14748 H6         737.9514  -761.0308   236.2799 H6            1 RES     
   14749 H6         736.1825  -760.9606   235.8028 H6            1 RES     
   14750 H6         736.1729  -763.4196   235.5430 H6            1 RES     
   14751 H6         737.9285  -763.4816   235.9824 H6            1 RES     
   14752 H6         737.4258  -762.4465   238.2029 H6            1 RES     
   14753 H6         735.6738  -762.3736   237.7591 H6            1 RES     
   14754 H6         735.6231  -764.8820   237.5833 H6            1 RES     
   14755 H6         737.3841  -764.9372   237.9627 H6            1 RES     
   14756 H6         736.9817  -763.9609   240.2106 H6            1 RES     
   14757 H6         736.0894  -765.5033   239.9442 H6            1 RES     
   14758 H6         733.9845  -764.2169   239.4639 H6            1 RES     
   14759 H6         734.8560  -762.6680   239.7968 H6            1 RES     
   14760 H6         733.5779  -763.3954   241.7710 H6            1 RES     
   14761 H6         734.4642  -764.9675   241.8024 H6            1 RES     
   14762 H6         735.3496  -763.4182   242.1160 H6            1 RES     
   14763 C0         743.9548  -760.3433   245.2377 C0            1 RES     
   14764 C1         742.6593  -760.5807   244.4509 C1            1 RES     
   14765 C1         741.8567  -761.5060   245.0220 C1            1 RES     
   14766 S2         740.4383  -761.7338   244.1667 S2            1 RES     
   14767 C1         740.8661  -760.5705   242.9944 C1            1 RES     
   14768 C1         742.1171  -760.0186   243.2936 C1            1 RES     
   14769 C1         742.4971  -761.9850   246.1930 C1            1 RES     
   14770 C1         743.7111  -761.3785   246.3427 C1            1 RES     
   14771 C1         744.4087  -761.8406   247.4634 C1            1 RES     
   14772 C1         743.6729  -762.8364   248.1557 C1            1 RES     
   14773 S2         742.1687  -763.0872   247.3883 S2            1 RES     
   14774 H3         742.6031  -759.2542   242.7034 H3            1 RES     
   14775 H3         745.3882  -761.4784   247.7372 H3            1 RES     
   14776 N4         743.4741  -765.0350   251.2125 N4            1 RES     
   14777 C1         743.1195  -764.2783   250.1350 C1            1 RES     
   14778 C1         744.0942  -763.6298   249.3415 C1            1 RES     
   14779 C1         745.4411  -763.8166   249.7015 C1            1 RES     
   14780 N4         746.4992  -763.3070   249.0217 N4            1 RES     
   14781 S2         747.7903  -763.8936   249.8708 S2            1 RES     
   14782 N4         747.0965  -764.7804   251.0790 N4            1 RES     
   14783 C1         745.7749  -764.6282   250.8226 C1            1 RES     
   14784 C1         744.7711  -765.2253   251.5732 C1            1 RES     
   14785 H5         742.0666  -764.1764   249.9103 H5            1 RES     
   14786 C0         743.7847  -758.8729   245.7806 C0            1 RES     
   14787 C0         744.6362  -758.1197   246.8625 C0            1 RES     
   14788 C0         743.7946  -756.9261   247.4458 C0            1 RES     
   14789 C0         743.6045  -755.6200   246.6188 C0            1 RES     
   14790 C0         742.7839  -755.6672   245.3131 C0            1 RES     
   14791 C0         741.3537  -756.2253   245.4450 C0            1 RES     
   14792 C0         740.4591  -755.3864   246.3670 C0            1 RES     
   14793 C0         739.0423  -755.9545   246.4127 C0            1 RES     
   14794 C0         746.0134  -757.5514   246.4153 C0            1 RES     
   14795 C0         747.1818  -758.5309   246.4771 C0            1 RES     
   14796 C0         748.4562  -757.8904   245.8968 C0            1 RES     
   14797 C0         749.6414  -758.8686   245.8885 C0            1 RES     
   14798 C0         750.8218  -758.2849   245.0926 C0            1 RES     
   14799 C0         751.9737  -759.2824   244.8699 C0            1 RES     
   14800 C0         751.5704  -760.4575   243.9569 C0            1 RES     
   14801 C0         752.7558  -761.3685   243.6542 C0            1 RES     
   14802 H6         743.7082  -758.2282   244.8938 H6            1 RES     
   14803 H6         742.7801  -758.9166   246.2563 H6            1 RES     
   14804 H6         744.7705  -758.8019   247.7313 H6            1 RES     
   14805 H6         744.3266  -756.5992   248.3676 H6            1 RES     
   14806 H6         742.8048  -757.2903   247.7957 H6            1 RES     
   14807 H6         744.5991  -755.1882   246.3797 H6            1 RES     
   14808 H6         743.1079  -754.8887   247.2914 H6            1 RES     
   14809 H6         743.3331  -756.2339   244.5433 H6            1 RES     
   14810 H6         742.7177  -754.6321   244.9126 H6            1 RES     
   14811 H6         741.3773  -757.2699   245.8062 H6            1 RES     
   14812 H6         740.9016  -756.2325   244.4288 H6            1 RES     
   14813 H6         740.8660  -755.3821   247.3994 H6            1 RES     
   14814 H6         740.4147  -754.3413   245.9907 H6            1 RES     
   14815 H6         738.5929  -755.9574   245.3966 H6            1 RES     
   14816 H6         738.4108  -755.3291   247.0783 H6            1 RES     
   14817 H6         739.0560  -756.9930   246.8075 H6            1 RES     
   14818 H6         746.3204  -756.7404   247.1137 H6            1 RES     
   14819 H6         745.9010  -757.0996   245.4050 H6            1 RES     
   14820 H6         747.3508  -758.8539   247.5274 H6            1 RES     
   14821 H6         746.9302  -759.4030   245.8891 H6            1 RES     
   14822 H6         748.2308  -757.5990   244.8464 H6            1 RES     
   14823 H6         748.7331  -756.9756   246.4648 H6            1 RES     
   14824 H6         749.9531  -759.1175   246.9257 H6            1 RES     
   14825 H6         749.3134  -759.8015   245.4138 H6            1 RES     
   14826 H6         750.4739  -757.9448   244.0919 H6            1 RES     
   14827 H6         751.2075  -757.3965   245.6396 H6            1 RES     
   14828 H6         752.3480  -759.6590   245.8457 H6            1 RES     
   14829 H6         752.7980  -758.7292   244.3689 H6            1 RES     
   14830 H6         751.1790  -760.0619   242.9933 H6            1 RES     
   14831 H6         750.7878  -761.0751   244.4355 H6            1 RES     
   14832 H6         752.4264  -762.1943   242.9910 H6            1 RES     
   14833 H6         753.5599  -760.7997   243.1401 H6            1 RES     
   14834 H6         753.1567  -761.8043   244.5953 H6            1 RES     
   14835 C0         745.1437  -760.5649   244.2174 C0            1 RES     
   14836 C0         746.3635  -761.5181   244.4464 C0            1 RES     
   14837 C0         747.6138  -761.0030   243.6519 C0            1 RES     
   14838 C0         747.7102  -761.1589   242.1141 C0            1 RES     
   14839 C0         746.7762  -760.2983   241.2390 C0            1 RES     
   14840 C0         746.8515  -758.7748   241.4740 C0            1 RES     
   14841 C0         748.2456  -758.1767   241.2446 C0            1 RES     
   14842 C0         748.2207  -756.6628   241.4459 C0            1 RES     
   14843 C0         746.1733  -763.0240   244.0998 C0            1 RES     
   14844 C0         745.2207  -763.7804   245.0102 C0            1 RES     
   14845 C0         745.2178  -765.2850   244.7365 C0            1 RES     
   14846 C0         744.2754  -765.9826   245.7240 C0            1 RES     
   14847 C0         744.2424  -767.4983   245.4935 C0            1 RES     
   14848 C0         743.3557  -768.2363   246.5111 C0            1 RES     
   14849 C0         741.8750  -767.8325   246.4285 C0            1 RES     
   14850 C0         741.0308  -768.6411   247.4078 C0            1 RES     
   14851 H6         744.7480  -760.8071   243.2158 H6            1 RES     
   14852 H6         745.5437  -759.5451   244.1039 H6            1 RES     
   14853 H6         746.6496  -761.4537   245.5145 H6            1 RES     
   14854 H6         748.4783  -761.5774   244.0503 H6            1 RES     
   14855 H6         747.8003  -759.9406   243.8828 H6            1 RES     
   14856 H6         747.5902  -762.2255   241.8355 H6            1 RES     
   14857 H6         748.7510  -760.8879   241.8344 H6            1 RES     
   14858 H6         745.7314  -760.6307   241.3607 H6            1 RES     
   14859 H6         747.0371  -760.4982   240.1770 H6            1 RES     
   14860 H6         746.5254  -758.5203   242.4976 H6            1 RES     
   14861 H6         746.1370  -758.2939   240.7701 H6            1 RES     
   14862 H6         748.9719  -758.6085   241.9648 H6            1 RES     
   14863 H6         748.5839  -758.3999   240.2098 H6            1 RES     
   14864 H6         747.5181  -756.1889   240.7271 H6            1 RES     
   14865 H6         749.2354  -756.2450   241.2797 H6            1 RES     
   14866 H6         747.9002  -756.4157   242.4812 H6            1 RES     
   14867 H6         747.1638  -763.5178   244.2181 H6            1 RES     
   14868 H6         745.8497  -763.1425   243.0430 H6            1 RES     
   14869 H6         745.5582  -763.6380   246.0561 H6            1 RES     
   14870 H6         744.1987  -763.4000   244.8493 H6            1 RES     
   14871 H6         744.8851  -765.4753   243.6932 H6            1 RES     
   14872 H6         746.2470  -765.6892   244.8672 H6            1 RES     
   14873 H6         744.6190  -765.7819   246.7635 H6            1 RES     
   14874 H6         743.2596  -765.5562   245.5920 H6            1 RES     
   14875 H6         743.8861  -767.7144   244.4628 H6            1 RES     
   14876 H6         745.2766  -767.8950   245.5950 H6            1 RES     
   14877 H6         743.7387  -768.0502   247.5389 H6            1 RES     
   14878 H6         743.4388  -769.3253   246.3018 H6            1 RES     
   14879 H6         741.4980  -768.0092   245.3978 H6            1 RES     
   14880 H6         741.7499  -766.7588   246.6794 H6            1 RES     
   14881 H6         739.9681  -768.3292   247.3264 H6            1 RES     
   14882 H6         741.1027  -769.7249   247.1759 H6            1 RES     
   14883 H6         741.3749  -768.4651   248.4494 H6            1 RES     
   14884 C0         746.8366  -766.9387   256.2652 C0            1 RES     
   14885 C1         746.0953  -766.8241   254.9270 C1            1 RES     
   14886 C1         745.3715  -767.9257   254.6283 C1            1 RES     
   14887 S2         744.5496  -767.7744   253.1802 S2            1 RES     
   14888 C1         745.1446  -766.1974   252.9170 C1            1 RES     
   14889 C1         745.9793  -765.8120   253.9723 C1            1 RES     
   14890 C1         745.5477  -768.8676   255.6735 C1            1 RES     
   14891 C1         746.4006  -768.3669   256.6147 C1            1 RES     
   14892 C1         746.6441  -769.2698   257.6547 C1            1 RES     
   14893 C1         745.9440  -770.4875   257.4564 C1            1 RES     
   14894 S2         745.0153  -770.3985   256.0267 S2            1 RES     
   14895 H3         746.4727  -764.8525   254.0401 H3            1 RES     
   14896 H3         747.2975  -769.0484   258.4851 H3            1 RES     
   14897 N4         744.9951  -773.8346   258.9102 N4            1 RES     
   14898 C1         744.9629  -772.6808   258.1843 C1            1 RES     
   14899 C1         745.9972  -771.7216   258.2855 C1            1 RES     
   14900 C1         747.0655  -772.0201   259.1505 C1            1 RES     
   14901 N4         748.1574  -771.2342   259.3280 N4            1 RES     
   14902 S2         749.0643  -772.1117   260.3954 S2            1 RES     
   14903 N4         748.1560  -773.4646   260.6642 N4            1 RES     
   14904 C1         747.0741  -773.2431   259.8794 C1            1 RES     
   14905 C1         746.0204  -774.1379   259.7502 C1            1 RES     
   14906 H5         744.1142  -772.5124   257.5355 H5            1 RES     
   14907 C0         746.1080  -765.8770   257.1751 C0            1 RES     
   14908 C0         746.2136  -765.6752   258.7279 C0            1 RES     
   14909 C0         744.9469  -764.8939   259.2364 C0            1 RES     
   14910 C0         744.8215  -763.3598   258.9986 C0            1 RES     
   14911 C0         744.6701  -762.8302   257.5574 C0            1 RES     
   14912 C0         743.4974  -763.4200   256.7506 C0            1 RES     
   14913 C0         742.1249  -763.1094   257.3624 C0            1 RES     
   14914 C0         741.0027  -763.6690   256.4907 C0            1 RES     
   14915 C0         747.4715  -764.9349   259.2654 C0            1 RES     
   14916 C0         748.6989  -765.8095   259.5043 C0            1 RES     
   14917 C0         749.9064  -764.9469   259.9153 C0            1 RES     
   14918 C0         751.1778  -765.7882   260.1079 C0            1 RES     
   14919 C0         752.4082  -764.8810   260.2823 C0            1 RES     
   14920 C0         753.7463  -765.6433   260.2830 C0            1 RES     
   14921 C0         754.0608  -766.2874   258.9180 C0            1 RES     
   14922 C0         755.4415  -766.9358   258.9056 C0            1 RES     
   14923 H6         746.2644  -764.9029   256.6908 H6            1 RES     
   14924 H6         745.0388  -766.1540   257.0432 H6            1 RES     
   14925 H6         746.1242  -766.6733   259.2117 H6            1 RES     
   14926 H6         744.9427  -765.0072   260.3440 H6            1 RES     
   14927 H6         744.0203  -765.3995   258.8894 H6            1 RES     
   14928 H6         745.6894  -762.8439   259.4608 H6            1 RES     
   14929 H6         743.9283  -763.0233   259.5666 H6            1 RES     
   14930 H6         745.6115  -762.9748   257.0021 H6            1 RES     
   14931 H6         744.5364  -761.7276   257.6099 H6            1 RES     
   14932 H6         743.6129  -764.5142   256.6429 H6            1 RES     
   14933 H6         743.5355  -762.9773   255.7311 H6            1 RES     
   14934 H6         742.0410  -763.5631   258.3716 H6            1 RES     
   14935 H6         741.9975  -762.0085   257.4484 H6            1 RES     
   14936 H6         741.0422  -763.2223   255.4741 H6            1 RES     
   14937 H6         740.0199  -763.4268   256.9469 H6            1 RES     
   14938 H6         741.0939  -764.7731   256.4068 H6            1 RES     
   14939 H6         747.2504  -764.5205   260.2750 H6            1 RES     
   14940 H6         747.6949  -764.0777   258.5924 H6            1 RES     
   14941 H6         748.4774  -766.5686   260.2859 H6            1 RES     
   14942 H6         748.9360  -766.3270   258.5847 H6            1 RES     
   14943 H6         750.0861  -764.2172   259.0941 H6            1 RES     
   14944 H6         749.6897  -764.3817   260.8480 H6            1 RES     
   14945 H6         751.0689  -766.4721   260.9770 H6            1 RES     
   14946 H6         751.3146  -766.4129   259.2166 H6            1 RES     
   14947 H6         752.4484  -764.1331   259.4593 H6            1 RES     
   14948 H6         752.3019  -764.3274   261.2411 H6            1 RES     
   14949 H6         753.7485  -766.4119   261.0852 H6            1 RES     
   14950 H6         754.5477  -764.9047   260.5039 H6            1 RES     
   14951 H6         754.0340  -765.5079   258.1244 H6            1 RES     
   14952 H6         753.3207  -767.0724   258.6751 H6            1 RES     
   14953 H6         755.6315  -767.3798   257.9071 H6            1 RES     
   14954 H6         756.2271  -766.1778   259.1124 H6            1 RES     
   14955 H6         755.4958  -767.7407   259.6707 H6            1 RES     
   14956 C0         748.3611  -766.6477   255.9574 C0            1 RES     
   14957 C0         749.5561  -767.5733   256.3626 C0            1 RES     
   14958 C0         750.8634  -766.7263   256.5456 C0            1 RES     
   14959 C0         751.6375  -766.1676   255.3261 C0            1 RES     
   14960 C0         750.9885  -765.0259   254.5173 C0            1 RES     
   14961 C0         750.5924  -763.7721   255.3254 C0            1 RES     
   14962 C0         751.7656  -763.1033   256.0535 C0            1 RES     
   14963 C0         751.2985  -761.8450   256.7827 C0            1 RES     
   14964 C0         749.8951  -768.7637   255.4179 C0            1 RES     
   14965 C0         748.8560  -769.8715   255.3776 C0            1 RES     
   14966 C0         749.3274  -771.0893   254.5817 C0            1 RES     
   14967 C0         748.2506  -772.1794   254.6293 C0            1 RES     
   14968 C0         748.6798  -773.4274   253.8484 C0            1 RES     
   14969 C0         747.6486  -774.5658   253.9312 C0            1 RES     
   14970 C0         746.2941  -774.2022   253.3024 C0            1 RES     
   14971 C0         745.3329  -775.3853   253.3487 C0            1 RES     
   14972 H6         748.4983  -766.4198   254.8861 H6            1 RES     
   14973 H6         748.5164  -765.6780   256.4558 H6            1 RES     
   14974 H6         749.3373  -767.9923   257.3642 H6            1 RES     
   14975 H6         751.5860  -767.3988   257.0569 H6            1 RES     
   14976 H6         750.6757  -765.8792   257.2267 H6            1 RES     
   14977 H6         751.9045  -766.9955   254.6382 H6            1 RES     
   14978 H6         752.6011  -765.7758   255.7170 H6            1 RES     
   14979 H6         750.1030  -765.4012   253.9769 H6            1 RES     
   14980 H6         751.7148  -764.7180   253.7341 H6            1 RES     
   14981 H6         749.8124  -764.0155   256.0679 H6            1 RES     
   14982 H6         750.1527  -763.0413   254.6113 H6            1 RES     
   14983 H6         752.1970  -763.7973   256.8050 H6            1 RES     
   14984 H6         752.5534  -762.8266   255.3202 H6            1 RES     
   14985 H6         750.8772  -761.1135   256.0601 H6            1 RES     
   14986 H6         752.1562  -761.3742   257.3065 H6            1 RES     
   14987 H6         750.5203  -762.1002   257.5343 H6            1 RES     
   14988 H6         750.8275  -769.2349   255.8018 H6            1 RES     
   14989 H6         750.0892  -768.3988   254.3860 H6            1 RES     
   14990 H6         748.6730  -770.2098   256.4169 H6            1 RES     
   14991 H6         747.9411  -769.4829   254.9012 H6            1 RES     
   14992 H6         749.5248  -770.7948   253.5282 H6            1 RES     
   14993 H6         750.2671  -771.4853   255.0286 H6            1 RES     
   14994 H6         748.0618  -772.4626   255.6891 H6            1 RES     
   14995 H6         747.3178  -771.7627   254.1964 H6            1 RES     
   14996 H6         748.8576  -773.1621   252.7835 H6            1 RES     
   14997 H6         749.6346  -773.8033   254.2778 H6            1 RES     
   14998 H6         747.5026  -774.8559   254.9953 H6            1 RES     
   14999 H6         748.0689  -775.4402   253.3878 H6            1 RES     
   15000 H6         746.4443  -773.9023   252.2427 H6            1 RES     
   15001 H6         745.8231  -773.3612   253.8522 H6            1 RES     
   15002 H6         744.3650  -775.0947   252.8885 H6            1 RES     
   15003 H6         745.7518  -776.2451   252.7841 H6            1 RES     
   15004 H6         745.1495  -775.6915   254.4007 H6            1 RES     
   15005 C0         746.2401  -777.7401   263.7742 C0            1 RES     
   15006 C1         746.1333  -777.0498   262.4083 C1            1 RES     
   15007 C1         745.8897  -777.9134   261.3978 C1            1 RES     
   15008 S2         745.7505  -777.1425   259.9207 S2            1 RES     
   15009 C1         746.0072  -775.6037   260.6111 C1            1 RES     
   15010 C1         746.1968  -775.7182   261.9931 C1            1 RES     
   15011 C1         745.8238  -779.2219   261.9402 C1            1 RES     
   15012 C1         746.0503  -779.1815   263.2860 C1            1 RES     
   15013 C1         746.0361  -780.4513   263.8722 C1            1 RES     
   15014 C1         745.7981  -781.4634   262.9071 C1            1 RES     
   15015 S2         745.5725  -780.7587   261.3686 S2            1 RES     
   15016 H3         746.3710  -774.8821   262.6559 H3            1 RES     
   15017 H3         746.2017  -780.6145   264.9265 H3            1 RES     
   15018 N4         745.1474  -785.1268   262.2964 N4            1 RES     
   15019 C1         745.1532  -783.7705   262.1560 C1            1 RES     
   15020 C1         745.7859  -782.9374   263.1078 C1            1 RES     
   15021 C1         746.4229  -783.5703   264.1904 C1            1 RES     
   15022 N4         747.1147  -782.9249   265.1632 N4            1 RES     
   15023 S2         747.6624  -784.1694   266.1031 S2            1 RES     
   15024 N4         747.0763  -785.5178   265.3511 N4            1 RES     
   15025 C1         746.4116  -784.9902   264.2950 C1            1 RES     
   15026 C1         745.7586  -785.7536   263.3367 C1            1 RES     
   15027 H5         744.6472  -783.3464   261.2995 H5            1 RES     
   15028 C0         744.9649  -777.2216   264.5429 C0            1 RES     
   15029 C0         744.3500  -777.7413   265.8900 C0            1 RES     
   15030 C0         742.8418  -777.3036   265.9743 C0            1 RES     
   15031 C0         742.4685  -775.8311   266.3180 C0            1 RES     
   15032 C0         742.8223  -774.7106   265.3181 C0            1 RES     
   15033 C0         742.2804  -774.8985   263.8879 C0            1 RES     
   15034 C0         740.7478  -774.9295   263.8204 C0            1 RES     
   15035 C0         740.2705  -775.0599   262.3757 C0            1 RES     
   15036 C0         745.0448  -777.2956   267.2083 C0            1 RES     
   15037 C0         746.2235  -778.1555   267.6551 C0            1 RES     
   15038 C0         746.8989  -777.5446   268.8968 C0            1 RES     
   15039 C0         748.1279  -778.3529   269.3416 C0            1 RES     
   15040 C0         748.9132  -777.5947   270.4260 C0            1 RES     
   15041 C0         750.2631  -778.2442   270.7832 C0            1 RES     
   15042 C0         751.2705  -778.1941   269.6171 C0            1 RES     
   15043 C0         752.6361  -778.7351   270.0286 C0            1 RES     
   15044 H6         745.0756  -776.1304   264.6144 H6            1 RES     
   15045 H6         744.1527  -777.4333   263.8130 H6            1 RES     
   15046 H6         744.3037  -778.8521   265.8414 H6            1 RES     
   15047 H6         742.3948  -777.9056   266.7974 H6            1 RES     
   15048 H6         742.2997  -777.6186   265.0569 H6            1 RES     
   15049 H6         742.9079  -775.5603   267.3012 H6            1 RES     
   15050 H6         741.3670  -775.8083   266.4592 H6            1 RES     
   15051 H6         743.9148  -774.5669   265.2843 H6            1 RES     
   15052 H6         742.4210  -773.7544   265.7192 H6            1 RES     
   15053 H6         742.6871  -775.8228   263.4379 H6            1 RES     
   15054 H6         742.6413  -774.0418   263.2774 H6            1 RES     
   15055 H6         740.3539  -775.7924   264.3965 H6            1 RES     
   15056 H6         740.3383  -773.9897   264.2502 H6            1 RES     
   15057 H6         740.6304  -774.2011   261.7696 H6            1 RES     
   15058 H6         739.1605  -775.0727   262.3491 H6            1 RES     
   15059 H6         740.6482  -776.0043   261.9287 H6            1 RES     
   15060 H6         744.3245  -777.3878   268.0524 H6            1 RES     
   15061 H6         745.3219  -776.2220   267.1193 H6            1 RES     
   15062 H6         745.8786  -779.1908   267.8680 H6            1 RES     
   15063 H6         746.9441  -778.1956   266.8496 H6            1 RES     
   15064 H6         747.2311  -776.5186   268.6213 H6            1 RES     
   15065 H6         746.1794  -777.4674   269.7409 H6            1 RES     
   15066 H6         747.8264  -779.3582   269.7069 H6            1 RES     
   15067 H6         748.7743  -778.5036   268.4683 H6            1 RES     
   15068 H6         749.1199  -776.5549   270.0882 H6            1 RES     
   15069 H6         748.2816  -777.5372   271.3398 H6            1 RES     
   15070 H6         750.1071  -779.2922   271.1173 H6            1 RES     
   15071 H6         750.6939  -777.6672   271.6305 H6            1 RES     
   15072 H6         751.3986  -777.1408   269.2820 H6            1 RES     
   15073 H6         750.9136  -778.8011   268.7643 H6            1 RES     
   15074 H6         753.3316  -778.6750   269.1666 H6            1 RES     
   15075 H6         753.0545  -778.1348   270.8647 H6            1 RES     
   15076 H6         752.5500  -779.7975   270.3449 H6            1 RES     
   15077 C0         747.6335  -777.3067   264.3858 C0            1 RES     
   15078 C0         748.7255  -778.2879   264.9277 C0            1 RES     
   15079 C0         749.5886  -777.5856   266.0330 C0            1 RES     
   15080 C0         750.6498  -776.5183   265.6680 C0            1 RES     
   15081 C0         750.1548  -775.1495   265.1582 C0            1 RES     
   15082 C0         749.1677  -774.4060   266.0826 C0            1 RES     
   15083 C0         749.7246  -774.1121   267.4817 C0            1 RES     
   15084 C0         748.7078  -773.3306   268.3116 C0            1 RES     
   15085 C0         749.7056  -778.9143   263.8928 C0            1 RES     
   15086 C0         749.0783  -779.9076   262.9292 C0            1 RES     
   15087 C0         750.1175  -780.6227   262.0646 C0            1 RES     
   15088 C0         749.4157  -781.6408   261.1586 C0            1 RES     
   15089 C0         750.4188  -782.3907   260.2738 C0            1 RES     
   15090 C0         749.7533  -783.4667   259.3988 C0            1 RES     
   15091 C0         748.7504  -782.8891   258.3873 C0            1 RES     
   15092 C0         748.1723  -783.9868   257.5006 C0            1 RES     
   15093 H6         748.1540  -776.6159   263.7000 H6            1 RES     
   15094 H6         747.3271  -776.6639   265.2259 H6            1 RES     
   15095 H6         748.2087  -779.1194   265.4456 H6            1 RES     
   15096 H6         750.1626  -778.3999   266.5262 H6            1 RES     
   15097 H6         748.9341  -777.1426   266.8025 H6            1 RES     
   15098 H6         751.3719  -776.9393   264.9392 H6            1 RES     
   15099 H6         751.2326  -776.3238   266.5940 H6            1 RES     
   15100 H6         749.6999  -775.2599   264.1593 H6            1 RES     
   15101 H6         751.0487  -774.5042   265.0154 H6            1 RES     
   15102 H6         748.2289  -774.9765   266.1922 H6            1 RES     
   15103 H6         748.9131  -773.4415   265.5905 H6            1 RES     
   15104 H6         749.9473  -775.0609   268.0134 H6            1 RES     
   15105 H6         750.6584  -773.5158   267.3961 H6            1 RES     
   15106 H6         748.4727  -772.3612   267.8219 H6            1 RES     
   15107 H6         749.1229  -773.1281   269.3208 H6            1 RES     
   15108 H6         747.7695  -773.9157   268.4246 H6            1 RES     
   15109 H6         750.4693  -779.4868   264.4655 H6            1 RES     
   15110 H6         750.2266  -778.1180   263.3183 H6            1 RES     
   15111 H6         748.5576  -780.6834   263.5251 H6            1 RES     
   15112 H6         748.3889  -779.3666   262.2606 H6            1 RES     
   15113 H6         750.6672  -779.8793   261.4478 H6            1 RES     
   15114 H6         750.8428  -781.1565   262.7193 H6            1 RES     
   15115 H6         748.8680  -782.3769   261.7890 H6            1 RES     
   15116 H6         748.6854  -781.0948   260.5263 H6            1 RES     
   15117 H6         750.9631  -781.6685   259.6270 H6            1 RES     
   15118 H6         751.1600  -782.8982   260.9297 H6            1 RES     
   15119 H6         749.2429  -784.2098   260.0507 H6            1 RES     
   15120 H6         750.5590  -783.9910   258.8399 H6            1 RES     
   15121 H6         749.2603  -782.1390   257.7447 H6            1 RES     
   15122 H6         747.9057  -782.3986   258.9138 H6            1 RES     
   15123 H6         747.4529  -783.5417   256.7812 H6            1 RES     
   15124 H6         748.9823  -784.4886   256.9299 H6            1 RES     
   15125 H6         747.6382  -784.7398   258.1187 H6            1 RES     
   15126 C0         745.0983  -790.7801   265.2117 C0            1 RES     
   15127 C1         745.4209  -789.5493   264.3545 C1            1 RES     
   15128 C1         745.8423  -789.8680   263.1106 C1            1 RES     
   15129 S2         746.1646  -788.5159   262.1814 S2            1 RES     
   15130 C1         745.7300  -787.4502   263.4407 C1            1 RES     
   15131 C1         745.3361  -788.1729   264.5728 C1            1 RES     
   15132 C1         745.8654  -791.2815   262.9998 C1            1 RES     
   15133 C1         745.4824  -791.8488   264.1811 C1            1 RES     
   15134 C1         745.5229  -793.2464   264.1446 C1            1 RES     
   15135 C1         745.9653  -793.7179   262.8819 C1            1 RES     
   15136 S2         746.2539  -792.3990   261.8370 S2            1 RES     
   15137 H3         745.0082  -787.7232   265.4996 H3            1 RES     
   15138 H3         745.2588  -793.8649   264.9892 H3            1 RES     
   15139 N4         746.5268  -796.7229   260.6749 N4            1 RES     
   15140 C1         746.2691  -795.4500   261.0902 C1            1 RES     
   15141 C1         746.2198  -795.1231   262.4653 C1            1 RES     
   15142 C1         746.4671  -796.1625   263.3802 C1            1 RES     
   15143 N4         746.5051  -796.0112   264.7282 N4            1 RES     
   15144 S2         746.8803  -797.5332   265.2521 S2            1 RES     
   15145 N4         747.0081  -798.4089   263.8577 N4            1 RES     
   15146 C1         746.7503  -797.4760   262.9096 C1            1 RES     
   15147 C1         746.7681  -797.7383   261.5464 C1            1 RES     
   15148 H5         746.0899  -794.6961   260.3359 H5            1 RES     
   15149 C0         743.5347  -790.6945   265.3947 C0            1 RES     
   15150 C0         742.5491  -791.7811   265.9522 C0            1 RES     
   15151 C0         741.0916  -791.4634   265.4540 C0            1 RES     
   15152 C0         740.2695  -790.3144   266.1097 C0            1 RES     
   15153 C0         740.7369  -788.8551   265.9290 C0            1 RES     
   15154 C0         740.9152  -788.3883   264.4715 C0            1 RES     
   15155 C0         739.6123  -788.4204   263.6617 C0            1 RES     
   15156 C0         739.8397  -787.8942   262.2462 C0            1 RES     
   15157 C0         742.4904  -791.9640   267.4957 C0            1 RES     
   15158 C0         743.5349  -792.9057   268.0878 C0            1 RES     
   15159 C0         743.4526  -792.9072   269.6254 C0            1 RES     
   15160 C0         744.5296  -793.8009   270.2602 C0            1 RES     
   15161 C0         744.5751  -793.5974   271.7846 C0            1 RES     
   15162 C0         745.7572  -794.3072   272.4705 C0            1 RES     
   15163 C0         747.1204  -793.7122   272.0648 C0            1 RES     
   15164 C0         748.2674  -794.3494   272.8428 C0            1 RES     
   15165 H6         743.3417  -789.7514   265.9251 H6            1 RES     
   15166 H6         743.1852  -790.5717   264.3459 H6            1 RES     
   15167 H6         742.7933  -792.7506   265.4635 H6            1 RES     
   15168 H6         740.4947  -792.3825   265.6504 H6            1 RES     
   15169 H6         741.0824  -791.3418   264.3495 H6            1 RES     
   15170 H6         740.1717  -790.5075   267.1987 H6            1 RES     
   15171 H6         739.2419  -790.3830   265.6938 H6            1 RES     
   15172 H6         741.6716  -788.6868   266.4889 H6            1 RES     
   15173 H6         739.9887  -788.1930   266.4172 H6            1 RES     
   15174 H6         741.6813  -788.9996   263.9600 H6            1 RES     
   15175 H6         741.2862  -787.3401   264.4981 H6            1 RES     
   15176 H6         739.2287  -789.4592   263.5896 H6            1 RES     
   15177 H6         738.8487  -787.7861   264.1620 H6            1 RES     
   15178 H6         740.2073  -786.8462   262.2767 H6            1 RES     
   15179 H6         738.8843  -787.9189   261.6810 H6            1 RES     
   15180 H6         740.5840  -788.5256   261.7152 H6            1 RES     
   15181 H6         741.5247  -792.4443   267.7723 H6            1 RES     
   15182 H6         742.5151  -790.9601   267.9744 H6            1 RES     
   15183 H6         743.3893  -793.9330   267.6882 H6            1 RES     
   15184 H6         744.5159  -792.5609   267.7907 H6            1 RES     
   15185 H6         743.6160  -791.8602   269.9661 H6            1 RES     
   15186 H6         742.4473  -793.2365   269.9675 H6            1 RES     
   15187 H6         744.3500  -794.8693   270.0127 H6            1 RES     
   15188 H6         745.5009  -793.5257   269.8311 H6            1 RES     
   15189 H6         744.6519  -792.5127   272.0208 H6            1 RES     
   15190 H6         743.6217  -793.9737   272.2165 H6            1 RES     
   15191 H6         745.7281  -795.3962   272.2529 H6            1 RES     
   15192 H6         745.6366  -794.1660   273.5669 H6            1 RES     
   15193 H6         747.1243  -792.6186   272.2701 H6            1 RES     
   15194 H6         747.3149  -793.8759   270.9885 H6            1 RES     
   15195 H6         749.2266  -793.8902   272.5278 H6            1 RES     
   15196 H6         748.1352  -794.1828   273.9333 H6            1 RES     
   15197 H6         748.3103  -795.4417   272.6396 H6            1 RES     
   15198 C0         745.9530  -790.6384   266.5357 C0            1 RES     
   15199 C0         746.9102  -791.7334   267.1134 C0            1 RES     
   15200 C0         747.0280  -791.5873   268.6705 C0            1 RES     
   15201 C0         747.8565  -790.4464   269.3113 C0            1 RES     
   15202 C0         747.3151  -789.0067   269.1983 C0            1 RES     
   15203 C0         745.8835  -788.7843   269.7302 C0            1 RES     
   15204 C0         745.7062  -789.1422   271.2115 C0            1 RES     
   15205 C0         744.2798  -788.8439   271.6695 C0            1 RES     
   15206 C0         748.3548  -791.8016   266.5365 C0            1 RES     
   15207 C0         748.4519  -792.2658   265.0930 C0            1 RES     
   15208 C0         749.8967  -792.4887   264.6444 C0            1 RES     
   15209 C0         749.9103  -793.0028   263.2002 C0            1 RES     
   15210 C0         751.3405  -793.2484   262.7048 C0            1 RES     
   15211 C0         751.3863  -793.8273   261.2804 C0            1 RES     
   15212 C0         750.8024  -792.8778   260.2221 C0            1 RES     
   15213 C0         750.9346  -793.4688   258.8226 C0            1 RES     
   15214 H6         746.5347  -789.7004   266.5169 H6            1 RES     
   15215 H6         745.1759  -790.4521   267.2935 H6            1 RES     
   15216 H6         746.4364  -792.7208   266.9480 H6            1 RES     
   15217 H6         747.5137  -792.5233   269.0225 H6            1 RES     
   15218 H6         746.0242  -791.5552   269.1267 H6            1 RES     
   15219 H6         748.8968  -790.4757   268.9283 H6            1 RES     
   15220 H6         747.9262  -790.6784   270.3958 H6            1 RES     
   15221 H6         747.3680  -788.6638   268.1511 H6            1 RES     
   15222 H6         748.0032  -788.3463   269.7695 H6            1 RES     
   15223 H6         745.1524  -789.3640   269.1400 H6            1 RES     
   15224 H6         745.6407  -787.7076   269.5921 H6            1 RES     
   15225 H6         745.9006  -790.2236   271.3712 H6            1 RES     
   15226 H6         746.4167  -788.5506   271.8280 H6            1 RES     
   15227 H6         744.0519  -787.7635   271.5447 H6            1 RES     
   15228 H6         744.1658  -789.1102   272.7408 H6            1 RES     
   15229 H6         743.5512  -789.4381   271.0765 H6            1 RES     
   15230 H6         748.9148  -792.5535   267.1363 H6            1 RES     
   15231 H6         748.8645  -790.8198   266.6460 H6            1 RES     
   15232 H6         747.9284  -793.2388   265.0084 H6            1 RES     
   15233 H6         748.0048  -791.4968   264.4420 H6            1 RES     
   15234 H6         750.4622  -791.5344   264.7142 H6            1 RES     
   15235 H6         750.3794  -793.2441   265.3047 H6            1 RES     
   15236 H6         749.3392  -793.9567   263.1449 H6            1 RES     
   15237 H6         749.4110  -792.2467   262.5597 H6            1 RES     
   15238 H6         751.9190  -792.2996   262.7403 H6            1 RES     
   15239 H6         751.8302  -793.9806   263.3839 H6            1 RES     
   15240 H6         750.8403  -794.7963   261.2572 H6            1 RES     
   15241 H6         752.4522  -794.0237   261.0314 H6            1 RES     
   15242 H6         751.3423  -791.9068   260.2549 H6            1 RES     
   15243 H6         749.7242  -792.6978   260.4135 H6            1 RES     
   15244 H6         750.5058  -792.7630   258.0802 H6            1 RES     
   15245 H6         752.0039  -793.6397   258.5753 H6            1 RES     
   15246 H6         750.3846  -794.4318   258.7576 H6            1 RES     
   15247 C0         746.5899  -803.0829   260.7591 C0            1 RES     
   15248 C1         746.9431  -801.5906   260.7178 C1            1 RES     
   15249 C1         747.9152  -801.3026   259.8241 C1            1 RES     
   15250 S2         748.2698  -799.6695   259.7730 S2            1 RES     
   15251 C1         747.1022  -799.2987   260.9603 C1            1 RES     
   15252 C1         746.4492  -800.4640   261.3782 C1            1 RES     
   15253 C1         748.3184  -802.5123   259.2038 C1            1 RES     
   15254 C1         747.6171  -803.5611   259.7255 C1            1 RES     
   15255 C1         748.0001  -804.7897   259.1780 C1            1 RES     
   15256 C1         749.0347  -804.6291   258.2209 C1            1 RES     
   15257 S2         749.4170  -802.9740   258.0499 S2            1 RES     
   15258 H3         745.6624  -800.4896   262.1192 H3            1 RES     
   15259 H3         747.5578  -805.7292   259.4738 H3            1 RES     
   15260 N4         751.1766  -806.2976   255.6046 N4            1 RES     
   15261 C1         750.4726  -805.3563   256.2957 C1            1 RES     
   15262 C1         749.7679  -805.6878   257.4763 C1            1 RES     
   15263 C1         749.8426  -807.0227   257.9136 C1            1 RES     
   15264 N4         749.2675  -807.4964   259.0477 N4            1 RES     
   15265 S2         749.7347  -809.0818   259.0545 S2            1 RES     
   15266 N4         750.6465  -809.2291   257.6854 N4            1 RES     
   15267 C1         750.6021  -807.9745   257.1759 C1            1 RES     
   15268 C1         751.2587  -807.5915   256.0142 C1            1 RES     
   15269 H5         750.4570  -804.3472   255.9074 H5            1 RES     
   15270 C0         745.1258  -803.1251   260.1757 C0            1 RES     
   15271 C0         744.2863  -804.3685   259.7152 C0            1 RES     
   15272 C0         743.1490  -803.8932   258.7385 C0            1 RES     
   15273 C0         741.8794  -803.1840   259.2961 C0            1 RES     
   15274 C0         742.0175  -801.7905   259.9439 C0            1 RES     
   15275 C0         742.6812  -800.7111   259.0672 C0            1 RES     
   15276 C0         741.8943  -800.4033   257.7864 C0            1 RES     
   15277 C0         742.5688  -799.2889   256.9894 C0            1 RES     
   15278 C0         743.6233  -805.2309   260.8270 C0            1 RES     
   15279 C0         744.5083  -806.3145   261.4361 C0            1 RES     
   15280 C0         743.7839  -807.0130   262.6016 C0            1 RES     
   15281 C0         744.6677  -808.0723   263.2786 C0            1 RES     
   15282 C0         744.0119  -808.5791   264.5749 C0            1 RES     
   15283 C0         744.9221  -809.4952   265.4139 C0            1 RES     
   15284 C0         746.1440  -808.7501   265.9875 C0            1 RES     
   15285 C0         746.9671  -809.6439   266.9096 C0            1 RES     
   15286 H6         744.5079  -802.5285   260.8614 H6            1 RES     
   15287 H6         745.2367  -802.5493   259.2305 H6            1 RES     
   15288 H6         744.9376  -805.0064   259.0770 H6            1 RES     
   15289 H6         742.7626  -804.8151   258.2483 H6            1 RES     
   15290 H6         743.5810  -803.2856   257.9146 H6            1 RES     
   15291 H6         741.3774  -803.8509   260.0283 H6            1 RES     
   15292 H6         741.1745  -803.0806   258.4440 H6            1 RES     
   15293 H6         742.5563  -801.8723   260.9022 H6            1 RES     
   15294 H6         740.9993  -801.4380   260.2183 H6            1 RES     
   15295 H6         743.7129  -801.0074   258.8027 H6            1 RES     
   15296 H6         742.7448  -799.7802   259.6723 H6            1 RES     
   15297 H6         741.8367  -801.3057   257.1431 H6            1 RES     
   15298 H6         740.8640  -800.0814   258.0521 H6            1 RES     
   15299 H6         742.6279  -798.3599   257.5958 H6            1 RES     
   15300 H6         741.9800  -799.0772   256.0721 H6            1 RES     
   15301 H6         743.5946  -799.5947   256.6913 H6            1 RES     
   15302 H6         742.7763  -805.8063   260.3894 H6            1 RES     
   15303 H6         743.2030  -804.5517   261.6013 H6            1 RES     
   15304 H6         744.7949  -807.0531   260.6560 H6            1 RES     
   15305 H6         745.4095  -805.8503   261.8128 H6            1 RES     
   15306 H6         743.5331  -806.2298   263.3518 H6            1 RES     
   15307 H6         742.8386  -807.4842   262.2545 H6            1 RES     
   15308 H6         744.8698  -808.9171   262.5854 H6            1 RES     
   15309 H6         745.6330  -807.6107   263.5202 H6            1 RES     
   15310 H6         743.7209  -807.7171   265.2155 H6            1 RES     
   15311 H6         743.0850  -809.1317   264.3053 H6            1 RES     
   15312 H6         745.2479  -810.3685   264.8094 H6            1 RES     
   15313 H6         744.3178  -809.8679   266.2697 H6            1 RES     
   15314 H6         745.8002  -807.8678   266.5719 H6            1 RES     
   15315 H6         746.8097  -808.4049   265.1747 H6            1 RES     
   15316 H6         747.8298  -809.0701   267.3057 H6            1 RES     
   15317 H6         746.3491  -809.9914   267.7650 H6            1 RES     
   15318 H6         747.3506  -810.5250   266.3502 H6            1 RES     
   15319 C0         746.7408  -803.5359   262.2677 C0            1 RES     
   15320 C0         747.5921  -804.7516   262.7640 C0            1 RES     
   15321 C0         746.9992  -805.3227   264.0990 C0            1 RES     
   15322 C0         747.1798  -804.5763   265.4439 C0            1 RES     
   15323 C0         746.4126  -803.2539   265.6470 C0            1 RES     
   15324 C0         744.8832  -803.3288   265.4541 C0            1 RES     
   15325 C0         744.1844  -804.3218   266.3920 C0            1 RES     
   15326 C0         742.6730  -804.2955   266.1729 C0            1 RES     
   15327 C0         749.1153  -804.5185   262.9874 C0            1 RES     
   15328 C0         749.9233  -804.2774   261.7234 C0            1 RES     
   15329 C0         751.4290  -804.2404   261.9878 C0            1 RES     
   15330 C0         752.1762  -804.0454   260.6635 C0            1 RES     
   15331 C0         753.6944  -804.0076   260.8754 C0            1 RES     
   15332 C0         754.4768  -803.8787   259.5572 C0            1 RES     
   15333 C0         754.1902  -802.5668   258.8093 C0            1 RES     
   15334 C0         755.0404  -802.4579   257.5480 C0            1 RES     
   15335 H6         747.0341  -802.6778   262.8971 H6            1 RES     
   15336 H6         745.6959  -803.7301   262.5561 H6            1 RES     
   15337 H6         747.4831  -805.5679   262.0235 H6            1 RES     
   15338 H6         747.4966  -806.3054   264.2505 H6            1 RES     
   15339 H6         745.9209  -805.5233   263.9814 H6            1 RES     
   15340 H6         748.2582  -804.4055   265.6379 H6            1 RES     
   15341 H6         746.8354  -805.2720   266.2392 H6            1 RES     
   15342 H6         746.8219  -802.4734   264.9834 H6            1 RES     
   15343 H6         746.6143  -802.9077   266.6840 H6            1 RES     
   15344 H6         744.6328  -803.5955   264.4125 H6            1 RES     
   15345 H6         744.4738  -802.3119   265.6427 H6            1 RES     
   15346 H6         744.5435  -805.3538   266.1950 H6            1 RES     
   15347 H6         744.4028  -804.0569   267.4489 H6            1 RES     
   15348 H6         742.2700  -803.2810   266.3806 H6            1 RES     
   15349 H6         742.1819  -805.0200   266.8553 H6            1 RES     
   15350 H6         742.4294  -804.5738   265.1247 H6            1 RES     
   15351 H6         749.5286  -805.4474   263.4403 H6            1 RES     
   15352 H6         749.2808  -803.6810   263.6993 H6            1 RES     
   15353 H6         749.7331  -805.1187   261.0276 H6            1 RES     
   15354 H6         749.6263  -803.3076   261.2918 H6            1 RES     
   15355 H6         751.6666  -803.4081   262.6852 H6            1 RES     
   15356 H6         751.7499  -805.2015   262.4493 H6            1 RES     
   15357 H6         751.9274  -804.8839   259.9749 H6            1 RES     
   15358 H6         751.8322  -803.0930   260.2098 H6            1 RES     
   15359 H6         753.9592  -803.1645   261.5501 H6            1 RES     
   15360 H6         754.0080  -804.9564   261.3640 H6            1 RES     
   15361 H6         754.2399  -804.7447   258.9003 H6            1 RES     
   15362 H6         755.5603  -803.9169   259.8044 H6            1 RES     
   15363 H6         754.4172  -801.7036   259.4716 H6            1 RES     
   15364 H6         753.1242  -802.5175   258.5048 H6            1 RES     
   15365 H6         754.8132  -801.5027   257.0292 H6            1 RES     
   15366 H6         756.1201  -802.4740   257.8078 H6            1 RES     
   15367 H6         754.8163  -803.2998   256.8586 H6            1 RES     
   15368 C0         752.7076  -812.0050   253.2504 C0            1 RES     
   15369 C1         752.6790  -810.6477   253.9648 C1            1 RES     
   15370 C1         753.8392  -809.9646   253.8472 C1            1 RES     
   15371 S2         753.7826  -808.4772   254.6088 S2            1 RES     
   15372 C1         752.1703  -808.7102   255.1155 C1            1 RES     
   15373 C1         751.6994  -809.9531   254.6769 C1            1 RES     
   15374 C1         754.7424  -810.7534   253.0904 C1            1 RES     
   15375 C1         754.1575  -811.9405   252.7546 C1            1 RES     
   15376 C1         755.0166  -812.7797   252.0378 C1            1 RES     
   15377 C1         756.2886  -812.1800   251.8519 C1            1 RES     
   15378 S2         756.3018  -810.6182   252.5413 S2            1 RES     
   15379 H3         750.7035  -810.3289   254.8658 H3            1 RES     
   15380 H3         754.7279  -813.7612   251.6929 H3            1 RES     
   15381 N4         759.6672  -812.4357   250.1976 N4            1 RES     
   15382 C1         758.5350  -811.9251   250.7603 C1            1 RES     
   15383 C1         757.4970  -812.7706   251.2161 C1            1 RES     
   15384 C1         757.6938  -814.1568   251.0810 C1            1 RES     
   15385 N4         756.8225  -815.1052   251.5086 N4            1 RES     
   15386 S2         757.6047  -816.5112   251.1300 S2            1 RES     
   15387 N4         759.0174  -816.0026   250.4424 N4            1 RES     
   15388 C1         758.8968  -814.6546   250.5047 C1            1 RES     
   15389 C1         759.8726  -813.7728   250.0602 C1            1 RES     
   15390 H5         758.4464  -810.8500   250.8371 H5            1 RES     
   15391 C0         751.6862  -811.8122   252.0650 C0            1 RES     
   15392 C0         751.4439  -812.7318   250.8165 C0            1 RES     
   15393 C0         750.7520  -811.8923   249.6808 C0            1 RES     
   15394 C0         749.2374  -811.5411   249.7744 C0            1 RES     
   15395 C0         748.7519  -810.5884   250.8867 C0            1 RES     
   15396 C0         749.4473  -809.2144   250.9375 C0            1 RES     
   15397 C0         749.2305  -808.3787   249.6690 C0            1 RES     
   15398 C0         749.8933  -807.0093   249.8012 C0            1 RES     
   15399 C0         750.5975  -814.0186   251.0340 C0            1 RES     
   15400 C0         751.3697  -815.2400   251.5243 C0            1 RES     
   15401 C0         750.4080  -816.4064   251.8173 C0            1 RES     
   15402 C0         751.1446  -817.6368   252.3697 C0            1 RES     
   15403 C0         750.1417  -818.6899   252.8724 C0            1 RES     
   15404 C0         750.7985  -819.8653   253.6199 C0            1 RES     
   15405 C0         751.4453  -819.4324   254.9508 C0            1 RES     
   15406 C0         751.9854  -820.6275   255.7298 C0            1 RES     
   15407 H6         750.7134  -811.6044   252.5324 H6            1 RES     
   15408 H6         752.0475  -810.8689   251.5993 H6            1 RES     
   15409 H6         752.4354  -812.9971   250.3866 H6            1 RES     
   15410 H6         750.8416  -812.5015   248.7532 H6            1 RES     
   15411 H6         751.3347  -810.9681   249.4786 H6            1 RES     
   15412 H6         748.6465  -812.4783   249.8478 H6            1 RES     
   15413 H6         748.9588  -811.0797   248.8032 H6            1 RES     
   15414 H6         748.8352  -811.0824   251.8688 H6            1 RES     
   15415 H6         747.6620  -810.4214   250.7429 H6            1 RES     
   15416 H6         750.5314  -809.3354   251.1173 H6            1 RES     
   15417 H6         749.0247  -808.6565   251.8018 H6            1 RES     
   15418 H6         749.6678  -808.8937   248.7887 H6            1 RES     
   15419 H6         748.1411  -808.2354   249.5008 H6            1 RES     
   15420 H6         749.4666  -806.4538   250.6636 H6            1 RES     
   15421 H6         749.7180  -806.4192   248.8771 H6            1 RES     
   15422 H6         750.9887  -807.1237   249.9480 H6            1 RES     
   15423 H6         750.1801  -814.3531   250.0574 H6            1 RES     
   15424 H6         749.7402  -813.7728   251.6989 H6            1 RES     
   15425 H6         752.1268  -815.5392   250.7671 H6            1 RES     
   15426 H6         751.8868  -814.9758   252.4367 H6            1 RES     
   15427 H6         749.6843  -816.0530   252.5857 H6            1 RES     
   15428 H6         749.8415  -816.6912   250.9040 H6            1 RES     
   15429 H6         751.8162  -818.0720   251.5986 H6            1 RES     
   15430 H6         751.7756  -817.3125   253.2062 H6            1 RES     
   15431 H6         749.4106  -818.2176   253.5657 H6            1 RES     
   15432 H6         749.5778  -819.0819   251.9975 H6            1 RES     
   15433 H6         751.5473  -820.3631   252.9675 H6            1 RES     
   15434 H6         749.9957  -820.5984   253.8538 H6            1 RES     
   15435 H6         750.6872  -818.9178   255.5821 H6            1 RES     
   15436 H6         752.2900  -818.7419   254.7699 H6            1 RES     
   15437 H6         752.4345  -820.2754   256.6808 H6            1 RES     
   15438 H6         751.1649  -821.3384   255.9664 H6            1 RES     
   15439 H6         752.7673  -821.1514   255.1378 H6            1 RES     
   15440 C0         752.3067  -813.0876   254.3325 C0            1 RES     
   15441 C0         753.1286  -814.3765   254.6671 C0            1 RES     
   15442 C0         752.1796  -815.5030   255.2060 C0            1 RES     
   15443 C0         751.5890  -815.4415   256.6363 C0            1 RES     
   15444 C0         750.5181  -814.3718   256.9324 C0            1 RES     
   15445 C0         749.2817  -814.3863   256.0089 C0            1 RES     
   15446 C0         748.5091  -815.7117   256.0222 C0            1 RES     
   15447 C0         747.2754  -815.6237   255.1259 C0            1 RES     
   15448 C0         754.3091  -814.2350   255.6724 C0            1 RES     
   15449 C0         755.4943  -813.4300   255.1666 C0            1 RES     
   15450 C0         756.6888  -813.4821   256.1201 C0            1 RES     
   15451 C0         757.8574  -812.6924   255.5195 C0            1 RES     
   15452 C0         759.0849  -812.7199   256.4382 C0            1 RES     
   15453 C0         760.2973  -811.9910   255.8342 C0            1 RES     
   15454 C0         760.0527  -810.4896   255.6137 C0            1 RES     
   15455 C0         761.3051  -809.8027   255.0796 C0            1 RES     
   15456 H6         752.0917  -812.6004   255.2994 H6            1 RES     
   15457 H6         751.3175  -813.4151   253.9761 H6            1 RES     
   15458 H6         753.5418  -814.7721   253.7187 H6            1 RES     
   15459 H6         752.7834  -816.4363   255.1878 H6            1 RES     
   15460 H6         751.3352  -815.6533   254.5123 H6            1 RES     
   15461 H6         752.4082  -815.3523   257.3784 H6            1 RES     
   15462 H6         751.1158  -816.4293   256.8246 H6            1 RES     
   15463 H6         750.9719  -813.3665   256.9115 H6            1 RES     
   15464 H6         750.1719  -814.5274   257.9772 H6            1 RES     
   15465 H6         749.5686  -814.1587   254.9673 H6            1 RES     
   15466 H6         748.6023  -813.5742   256.3497 H6            1 RES     
   15467 H6         749.1517  -816.5346   255.6445 H6            1 RES     
   15468 H6         748.1882  -815.9484   257.0595 H6            1 RES     
   15469 H6         746.5940  -814.8222   255.4840 H6            1 RES     
   15470 H6         746.7288  -816.5895   255.1432 H6            1 RES     
   15471 H6         747.5737  -815.4034   254.0780 H6            1 RES     
   15472 H6         754.6987  -815.2586   255.8706 H6            1 RES     
   15473 H6         753.9524  -813.8064   256.6340 H6            1 RES     
   15474 H6         755.8236  -813.8698   254.2041 H6            1 RES     
   15475 H6         755.1876  -812.3769   255.0574 H6            1 RES     
   15476 H6         756.4024  -813.0500   257.1033 H6            1 RES     
   15477 H6         757.0016  -814.5405   256.2676 H6            1 RES     
   15478 H6         758.1317  -813.1343   254.5354 H6            1 RES     
   15479 H6         757.5231  -811.6459   255.3635 H6            1 RES     
   15480 H6         758.8294  -812.2672   257.4210 H6            1 RES     
   15481 H6         759.3769  -813.7796   256.6082 H6            1 RES     
   15482 H6         760.5752  -812.4715   254.8700 H6            1 RES     
   15483 H6         761.1482  -812.1120   256.5399 H6            1 RES     
   15484 H6         759.7647  -810.0143   256.5763 H6            1 RES     
   15485 H6         759.2390  -810.3323   254.8758 H6            1 RES     
   15486 H6         761.0998  -808.7217   254.9303 H6            1 RES     
   15487 H6         762.1419  -809.9100   255.8020 H6            1 RES     
   15488 H6         761.6021  -810.2467   254.1055 H6            1 RES     
   15489 C0         763.3609  -816.4251   246.8957 C0            1 RES     
   15490 C1         762.7100  -815.5386   247.9652 C1            1 RES     
   15491 C1         763.6111  -814.8498   248.7001 C1            1 RES     
   15492 S2         762.8848  -813.8694   249.8431 S2            1 RES     
   15493 C1         761.3165  -814.3429   249.3672 C1            1 RES     
   15494 C1         761.3867  -815.2636   248.3153 C1            1 RES     
   15495 C1         764.9090  -815.1903   248.2414 C1            1 RES     
   15496 C1         764.8226  -816.1103   247.2363 C1            1 RES     
   15497 C1         766.0770  -816.5148   246.7682 C1            1 RES     
   15498 C1         767.1247  -815.8670   247.4717 C1            1 RES     
   15499 S2         766.4724  -814.7859   248.6207 S2            1 RES     
   15500 H3         760.5257  -815.7069   247.8346 H3            1 RES     
   15501 H3         766.2045  -817.2405   245.9791 H3            1 RES     
   15502 N4         770.8395  -815.2698   247.7176 N4            1 RES     
   15503 C1         769.4901  -815.0948   247.8055 C1            1 RES     
   15504 C1         768.5907  -816.0785   247.3327 C1            1 RES     
   15505 C1         769.1495  -817.2488   246.7882 C1            1 RES     
   15506 N4         768.4322  -818.3077   246.3346 N4            1 RES     
   15507 S2         769.6104  -819.3723   245.8760 S2            1 RES     
   15508 N4         771.0157  -818.5756   246.2193 N4            1 RES     
   15509 C1         770.5635  -817.4047   246.7290 C1            1 RES     
   15510 C1         771.3951  -816.3951   247.1944 C1            1 RES     
   15511 H5         769.1246  -814.1730   248.2369 H5            1 RES     
   15512 C0         762.9260  -815.7404   245.5437 C0            1 RES     
   15513 C0         763.4628  -816.0014   244.0923 C0            1 RES     
   15514 C0         763.1410  -814.7551   243.1886 C0            1 RES     
   15515 C0         761.6946  -814.5188   242.6613 C0            1 RES     
   15516 C0         760.5717  -814.1834   243.6649 C0            1 RES     
   15517 C0         760.8312  -812.9655   244.5723 C0            1 RES     
   15518 C0         760.9816  -811.6517   243.7940 C0            1 RES     
   15519 C0         761.1791  -810.4753   244.7475 C0            1 RES     
   15520 C0         762.9370  -817.2664   243.3556 C0            1 RES     
   15521 C0         763.6937  -818.5595   243.6448 C0            1 RES     
   15522 C0         763.0064  -819.7539   242.9578 C0            1 RES     
   15523 C0         763.7078  -821.0840   243.2748 C0            1 RES     
   15524 C0         762.8685  -822.2731   242.7760 C0            1 RES     
   15525 C0         763.4043  -823.6442   243.2285 C0            1 RES     
   15526 C0         763.3015  -823.8453   244.7536 C0            1 RES     
   15527 C0         763.7267  -825.2508   245.1666 C0            1 RES     
   15528 H6         761.8283  -815.7888   245.5176 H6            1 RES     
   15529 H6         763.2151  -814.6805   245.7175 H6            1 RES     
   15530 H6         764.5746  -816.0209   244.1347 H6            1 RES     
   15531 H6         763.7579  -814.8767   242.2699 H6            1 RES     
   15532 H6         763.5162  -813.8263   243.6694 H6            1 RES     
   15533 H6         761.3700  -815.4011   242.0705 H6            1 RES     
   15534 H6         761.7538  -813.6746   241.9419 H6            1 RES     
   15535 H6         760.3450  -815.0661   244.2854 H6            1 RES     
   15536 H6         759.6409  -813.9944   243.0868 H6            1 RES     
   15537 H6         761.7307  -813.1299   245.1936 H6            1 RES     
   15538 H6         759.9624  -812.8685   245.2599 H6            1 RES     
   15539 H6         761.8598  -811.7028   243.1175 H6            1 RES     
   15540 H6         760.0673  -811.4727   243.1877 H6            1 RES     
   15541 H6         760.3082  -810.3798   245.4307 H6            1 RES     
   15542 H6         761.2780  -809.5353   244.1648 H6            1 RES     
   15543 H6         762.1009  -810.6188   245.3509 H6            1 RES     
   15544 H6         763.0664  -817.1326   242.2578 H6            1 RES     
   15545 H6         761.8473  -817.3674   243.5552 H6            1 RES     
   15546 H6         764.7477  -818.4666   243.3035 H6            1 RES     
   15547 H6         763.6953  -818.7247   244.7136 H6            1 RES     
   15548 H6         761.9639  -819.8028   243.3449 H6            1 RES     
   15549 H6         762.9669  -819.6078   241.8563 H6            1 RES     
   15550 H6         764.7254  -821.1080   242.8287 H6            1 RES     
   15551 H6         763.8269  -821.1587   244.3627 H6            1 RES     
   15552 H6         761.8232  -822.1822   243.1464 H6            1 RES     
   15553 H6         762.8404  -822.2399   241.6645 H6            1 RES     
   15554 H6         764.4539  -823.7760   242.8889 H6            1 RES     
   15555 H6         762.7780  -824.4219   242.7393 H6            1 RES     
   15556 H6         762.2488  -823.6893   245.0787 H6            1 RES     
   15557 H6         763.9521  -823.1285   245.2883 H6            1 RES     
   15558 H6         763.6316  -825.3567   246.2666 H6            1 RES     
   15559 H6         763.0784  -826.0103   244.6795 H6            1 RES     
   15560 H6         764.7857  -825.4324   244.8804 H6            1 RES     
   15561 C0         762.8084  -817.8888   247.1324 C0            1 RES     
   15562 C0         763.6909  -819.1706   247.2976 C0            1 RES     
   15563 C0         762.9007  -820.4403   246.8249 C0            1 RES     
   15564 C0         761.7629  -821.0458   247.6835 C0            1 RES     
   15565 C0         760.4474  -820.2503   247.8075 C0            1 RES     
   15566 C0         759.7627  -819.8739   246.4766 C0            1 RES     
   15567 C0         759.3971  -821.0793   245.6008 C0            1 RES     
   15568 C0         758.6788  -820.6237   244.3321 C0            1 RES     
   15569 C0         764.2617  -819.4720   248.7144 C0            1 RES     
   15570 C0         765.3206  -818.4985   249.2039 C0            1 RES     
   15571 C0         765.9717  -818.9489   250.5123 C0            1 RES     
   15572 C0         767.0600  -817.9465   250.9136 C0            1 RES     
   15573 C0         767.7488  -818.3584   252.2202 C0            1 RES     
   15574 C0         768.8913  -817.4077   252.6166 C0            1 RES     
   15575 C0         768.4143  -815.9750   252.9033 C0            1 RES     
   15576 C0         769.5719  -815.0924   253.3577 C0            1 RES     
   15577 H6         762.0943  -817.8966   247.9741 H6            1 RES     
   15578 H6         762.1734  -818.0422   246.2458 H6            1 RES     
   15579 H6         764.5485  -819.0850   246.6021 H6            1 RES     
   15580 H6         763.6577  -821.2505   246.7445 H6            1 RES     
   15581 H6         762.4932  -820.2799   245.8126 H6            1 RES     
   15582 H6         762.1423  -821.2831   248.6982 H6            1 RES     
   15583 H6         761.5043  -822.0225   247.2207 H6            1 RES     
   15584 H6         760.6137  -819.3342   248.3992 H6            1 RES     
   15585 H6         759.7383  -820.8694   248.3989 H6            1 RES     
   15586 H6         760.4014  -819.1935   245.8868 H6            1 RES     
   15587 H6         758.8314  -819.3195   246.7267 H6            1 RES     
   15588 H6         760.3144  -821.6275   245.2998 H6            1 RES     
   15589 H6         758.7326  -821.7667   246.1673 H6            1 RES     
   15590 H6         757.7410  -820.0866   244.5906 H6            1 RES     
   15591 H6         758.4235  -821.5051   243.7078 H6            1 RES     
   15592 H6         759.3320  -819.9466   243.7400 H6            1 RES     
   15593 H6         764.7613  -820.4654   248.6648 H6            1 RES     
   15594 H6         763.4400  -819.5329   249.4605 H6            1 RES     
   15595 H6         766.1214  -818.4479   248.4395 H6            1 RES     
   15596 H6         764.8487  -817.5172   249.3751 H6            1 RES     
   15597 H6         765.2014  -819.0148   251.3109 H6            1 RES     
   15598 H6         766.4340  -819.9521   250.3722 H6            1 RES     
   15599 H6         767.8225  -817.8893   250.1047 H6            1 RES     
   15600 H6         766.5854  -816.9505   251.0320 H6            1 RES     
   15601 H6         767.0008  -818.4051   253.0414 H6            1 RES     
   15602 H6         768.1837  -819.3735   252.0870 H6            1 RES     
   15603 H6         769.6576  -817.3938   251.8101 H6            1 RES     
   15604 H6         769.3638  -817.8154   253.5370 H6            1 RES     
   15605 H6         767.6410  -815.9930   253.7016 H6            1 RES     
   15606 H6         767.9793  -815.5196   251.9896 H6            1 RES     
   15607 H6         769.1990  -814.0657   253.5575 H6            1 RES     
   15608 H6         770.0218  -815.4956   254.2898 H6            1 RES     
   15609 H6         770.3506  -815.0410   252.5669 H6            1 RES     
   15610 C0         776.4165  -817.2494   245.3854 C0            1 RES     
   15611 C1         775.1831  -816.9574   246.2496 C1            1 RES     
   15612 C1         775.4947  -816.6550   247.5295 C1            1 RES     
   15613 S2         774.1418  -816.3143   248.4509 S2            1 RES     
   15614 C1         773.0863  -816.5572   247.1328 C1            1 RES     
   15615 C1         773.8130  -816.9008   245.9871 C1            1 RES     
   15616 C1         776.9042  -816.7216   247.6693 C1            1 RES     
   15617 C1         777.4742  -817.0893   246.4844 C1            1 RES     
   15618 C1         778.8649  -817.2097   246.5710 C1            1 RES     
   15619 C1         779.3276  -816.9263   247.8817 C1            1 RES     
   15620 S2         778.0129  -816.4968   248.8825 S2            1 RES     
   15621 H3         773.3703  -817.0983   245.0208 H3            1 RES     
   15622 H3         779.4838  -817.4970   245.7343 H3            1 RES     
   15623 N4         782.3267  -816.4202   250.1102 N4            1 RES     
   15624 C1         781.0689  -816.3347   249.5907 C1            1 RES     
   15625 C1         780.7176  -817.0185   248.4036 C1            1 RES     
   15626 C1         781.7152  -817.8031   247.7971 C1            1 RES     
   15627 N4         781.5327  -818.5585   246.6846 N4            1 RES     
   15628 S2         783.0098  -819.2734   246.4873 S2            1 RES     
   15629 N4         783.9025  -818.6862   247.7466 N4            1 RES     
   15630 C1         783.0127  -817.8830   248.3778 C1            1 RES     
   15631 C1         783.3017  -817.1743   249.5362 C1            1 RES     
   15632 H5         780.3473  -815.7162   250.1067 H5            1 RES     
   15633 C0         776.4478  -816.0375   244.3774 C0            1 RES     
   15634 C0         777.5951  -815.6016   243.3993 C0            1 RES     
   15635 C0         777.4014  -814.0891   243.0143 C0            1 RES     
   15636 C0         776.3054  -813.6730   241.9888 C0            1 RES     
   15637 C0         774.8187  -813.8534   242.3595 C0            1 RES     
   15638 C0         774.3706  -813.1718   243.6667 C0            1 RES     
   15639 C0         774.5202  -811.6450   243.6356 C0            1 RES     
   15640 C0         774.0083  -811.0228   244.9329 C0            1 RES     
   15641 C0         777.7491  -816.4084   242.0784 C0            1 RES     
   15642 C0         778.5948  -817.6749   242.1747 C0            1 RES     
   15643 C0         778.5699  -818.4448   240.8414 C0            1 RES     
   15644 C0         779.3643  -819.7581   240.9185 C0            1 RES     
   15645 C0         779.1254  -820.6120   239.6610 C0            1 RES     
   15646 C0         779.7273  -822.0268   239.7480 C0            1 RES     
   15647 C0         779.0377  -822.8982   240.8168 C0            1 RES     
   15648 C0         779.5680  -824.3284   240.8058 C0            1 RES     
   15649 H6         775.5114  -816.0938   243.8048 H6            1 RES     
   15650 H6         776.3747  -815.1644   245.0628 H6            1 RES     
   15651 H6         778.5530  -815.6128   243.9654 H6            1 RES     
   15652 H6         778.3593  -813.7679   242.5467 H6            1 RES     
   15653 H6         777.3043  -813.4698   243.9318 H6            1 RES     
   15654 H6         776.4824  -814.1999   241.0276 H6            1 RES     
   15655 H6         776.4619  -812.5936   241.7786 H6            1 RES     
   15656 H6         774.5669  -814.9261   242.3959 H6            1 RES     
   15657 H6         774.2060  -813.4447   241.5265 H6            1 RES     
   15658 H6         774.9318  -813.5788   244.5279 H6            1 RES     
   15659 H6         773.2966  -813.4161   243.8212 H6            1 RES     
   15660 H6         775.5868  -811.3646   243.5122 H6            1 RES     
   15661 H6         773.9362  -811.2321   242.7847 H6            1 RES     
   15662 H6         772.9346  -811.2664   245.0823 H6            1 RES     
   15663 H6         774.1186  -809.9189   244.8862 H6            1 RES     
   15664 H6         774.5915  -811.4025   245.7990 H6            1 RES     
   15665 H6         778.2965  -815.7897   241.3318 H6            1 RES     
   15666 H6         776.7364  -816.6136   241.6664 H6            1 RES     
   15667 H6         779.6385  -817.4136   242.4551 H6            1 RES     
   15668 H6         778.1817  -818.3054   242.9502 H6            1 RES     
   15669 H6         777.5064  -818.6873   240.6196 H6            1 RES     
   15670 H6         778.9683  -817.8173   240.0146 H6            1 RES     
   15671 H6         780.4483  -819.5546   241.0539 H6            1 RES     
   15672 H6         779.0241  -820.3139   241.8009 H6            1 RES     
   15673 H6         778.0333  -820.7223   239.4786 H6            1 RES     
   15674 H6         779.5649  -820.0803   238.7884 H6            1 RES     
   15675 H6         780.8197  -821.9668   239.9410 H6            1 RES     
   15676 H6         779.5726  -822.5133   238.7602 H6            1 RES     
   15677 H6         777.9430  -822.9301   240.6203 H6            1 RES     
   15678 H6         779.2088  -822.4860   241.8287 H6            1 RES     
   15679 H6         779.0430  -824.9223   241.5816 H6            1 RES     
   15680 H6         779.3889  -824.8001   239.8159 H6            1 RES     
   15681 H6         780.6578  -824.3367   241.0260 H6            1 RES     
   15682 C0         776.1813  -818.6741   244.7386 C0            1 RES     
   15683 C0         777.1868  -819.8716   244.8030 C0            1 RES     
   15684 C0         776.9989  -820.8080   243.5590 C0            1 RES     
   15685 C0         775.7842  -821.7621   243.4461 C0            1 RES     
   15686 C0         774.3932  -821.1389   243.2106 C0            1 RES     
   15687 C0         774.2706  -820.2171   241.9789 C0            1 RES     
   15688 C0         774.6096  -820.9042   240.6497 C0            1 RES     
   15689 C0         774.4124  -819.9406   239.4810 C0            1 RES     
   15690 C0         777.1556  -820.7680   246.0757 C0            1 RES     
   15691 C0         777.6415  -820.0972   247.3495 C0            1 RES     
   15692 C0         777.7619  -821.0755   248.5186 C0            1 RES     
   15693 C0         778.3040  -820.3384   249.7486 C0            1 RES     
   15694 C0         778.4491  -821.2807   250.9496 C0            1 RES     
   15695 C0         779.0529  -820.5862   252.1821 C0            1 RES     
   15696 C0         778.1739  -819.4493   252.7274 C0            1 RES     
   15697 C0         778.7826  -818.8414   253.9866 C0            1 RES     
   15698 H6         775.2019  -819.0780   245.0487 H6            1 RES     
   15699 H6         776.0394  -818.4245   243.6754 H6            1 RES     
   15700 H6         778.2110  -819.4611   244.7073 H6            1 RES     
   15701 H6         777.8870  -821.4767   243.5516 H6            1 RES     
   15702 H6         777.0346  -820.2165   242.6286 H6            1 RES     
   15703 H6         775.7414  -822.4238   244.3349 H6            1 RES     
   15704 H6         775.9870  -822.4295   242.5810 H6            1 RES     
   15705 H6         774.0697  -820.5858   244.1085 H6            1 RES     
   15706 H6         773.6698  -821.9745   243.0911 H6            1 RES     
   15707 H6         774.9173  -819.3291   242.0889 H6            1 RES     
   15708 H6         773.2190  -819.8571   241.9361 H6            1 RES     
   15709 H6         775.6691  -821.2359   240.6481 H6            1 RES     
   15710 H6         773.9519  -821.7884   240.5061 H6            1 RES     
   15711 H6         773.3557  -819.6000   239.4350 H6            1 RES     
   15712 H6         774.6639  -820.4500   238.5276 H6            1 RES     
   15713 H6         775.0735  -819.0543   239.5949 H6            1 RES     
   15714 H6         777.8492  -821.6199   245.8967 H6            1 RES     
   15715 H6         776.1354  -821.1784   246.2381 H6            1 RES     
   15716 H6         778.6536  -819.6881   247.1586 H6            1 RES     
   15717 H6         776.9233  -819.3103   247.6325 H6            1 RES     
   15718 H6         776.7656  -821.5129   248.7453 H6            1 RES     
   15719 H6         778.4637  -821.8961   248.2468 H6            1 RES     
   15720 H6         779.3000  -819.9041   249.5067 H6            1 RES     
   15721 H6         777.6024  -819.5147   249.9946 H6            1 RES     
   15722 H6         777.4580  -821.7107   251.2121 H6            1 RES     
   15723 H6         779.1268  -822.1157   250.6653 H6            1 RES     
   15724 H6         780.0614  -820.1916   251.9273 H6            1 RES     
   15725 H6         779.1718  -821.3551   252.9766 H6            1 RES     
   15726 H6         777.1637  -819.8439   252.9707 H6            1 RES     
   15727 H6         778.0736  -818.6400   251.9747 H6            1 RES     
   15728 H6         778.1279  -818.0248   254.3577 H6            1 RES     
   15729 H6         778.8757  -819.6121   254.7809 H6            1 RES     
   15730 H6         779.7863  -818.4202   253.7645 H6            1 RES     
   15731 C0         788.6597  -817.0034   250.2285 C0            1 RES     
   15732 C1         787.1458  -817.1620   250.4195 C1            1 RES     
   15733 C1         786.8028  -817.4640   251.6913 C1            1 RES     
   15734 S2         785.1487  -817.6077   251.8878 S2            1 RES     
   15735 C1         784.8438  -817.2523   250.2474 C1            1 RES     
   15736 C1         786.0468  -817.0241   249.5694 C1            1 RES     
   15737 C1         787.9907  -817.5544   252.4603 C1            1 RES     
   15738 C1         789.0791  -817.3335   251.6663 C1            1 RES     
   15739 C1         790.2859  -817.4482   252.3637 C1            1 RES     
   15740 C1         790.0664  -817.7776   253.7259 C1            1 RES     
   15741 S2         788.3908  -817.8773   254.0375 S2            1 RES     
   15742 H3         786.1172  -816.7733   248.5202 H3            1 RES     
   15743 H3         791.2502  -817.3119   251.8975 H3            1 RES     
   15744 N4         791.6201  -818.2657   257.1266 N4            1 RES     
   15745 C1         790.7214  -817.9832   256.1407 C1            1 RES     
   15746 C1         791.0811  -818.0642   254.7754 C1            1 RES     
   15747 C1         792.3966  -818.4667   254.4821 C1            1 RES     
   15748 N4         792.8890  -818.6413   253.2297 N4            1 RES     
   15749 S2         794.4332  -819.1557   253.5173 S2            1 RES     
   15750 N4         794.5388  -819.1813   255.1652 N4            1 RES     
   15751 C1         793.3025  -818.7708   255.5374 C1            1 RES     
   15752 C1         792.8948  -818.6562   256.8596 C1            1 RES     
   15753 H5         789.7249  -817.6816   256.4331 H5            1 RES     
   15754 C0         788.8269  -815.4663   249.9201 C0            1 RES     
   15755 C0         790.1409  -814.6091   249.8784 C0            1 RES     
   15756 C0         789.7756  -813.0909   250.0652 C0            1 RES     
   15757 C0         789.1546  -812.2811   248.8885 C0            1 RES     
   15758 C0         787.7412  -812.6435   248.3871 C0            1 RES     
   15759 C0         786.6327  -812.6372   249.4574 C0            1 RES     
   15760 C0         786.4138  -811.2584   250.0941 C0            1 RES     
   15761 C0         785.2679  -811.3019   251.1026 C0            1 RES     
   15762 C0         791.0280  -814.7276   248.6063 C0            1 RES     
   15763 C0         792.0270  -815.8811   248.6047 C0            1 RES     
   15764 C0         792.7543  -815.9653   247.2501 C0            1 RES     
   15765 C0         793.7277  -817.1530   247.1906 C0            1 RES     
   15766 C0         794.2559  -817.3511   245.7591 C0            1 RES     
   15767 C0         795.0810  -818.6382   245.5746 C0            1 RES     
   15768 C0         794.2319  -819.9142   245.7420 C0            1 RES     
   15769 C0         795.0398  -821.1723   245.4399 C0            1 RES     
   15770 H6         788.2653  -815.2789   248.9941 H6            1 RES     
   15771 H6         788.2646  -814.9994   250.7586 H6            1 RES     
   15772 H6         790.7401  -814.8532   250.7838 H6            1 RES     
   15773 H6         790.7347  -812.5712   250.2877 H6            1 RES     
   15774 H6         789.1541  -812.9558   250.9763 H6            1 RES     
   15775 H6         789.8425  -812.3123   248.0174 H6            1 RES     
   15776 H6         789.1240  -811.2201   249.2156 H6            1 RES     
   15777 H6         787.7608  -813.6222   247.8799 H6            1 RES     
   15778 H6         787.4624  -811.9164   247.5934 H6            1 RES     
   15779 H6         786.8542  -813.3767   250.2487 H6            1 RES     
   15780 H6         785.6870  -812.9494   248.9624 H6            1 RES     
   15781 H6         787.3314  -810.9282   250.6237 H6            1 RES     
   15782 H6         786.1667  -810.5188   249.3019 H6            1 RES     
   15783 H6         784.3244  -811.6112   250.6041 H6            1 RES     
   15784 H6         785.1217  -810.2940   251.5450 H6            1 RES     
   15785 H6         785.5000  -812.0188   251.9191 H6            1 RES     
   15786 H6         791.6761  -813.8259   248.5251 H6            1 RES     
   15787 H6         790.3669  -814.7474   247.7118 H6            1 RES     
   15788 H6         792.7577  -815.7512   249.4326 H6            1 RES     
   15789 H6         791.4867  -816.8034   248.7693 H6            1 RES     
   15790 H6         791.9770  -816.1055   246.4658 H6            1 RES     
   15791 H6         793.3043  -815.0228   247.0370 H6            1 RES     
   15792 H6         794.5690  -817.0080   247.9021 H6            1 RES     
   15793 H6         793.1880  -818.0553   247.5032 H6            1 RES     
   15794 H6         793.4054  -817.3919   245.0427 H6            1 RES     
   15795 H6         794.8839  -816.4725   245.4930 H6            1 RES     
   15796 H6         795.9393  -818.6470   246.2800 H6            1 RES     
   15797 H6         795.4809  -818.6289   244.5371 H6            1 RES     
   15798 H6         793.3665  -819.8788   245.0436 H6            1 RES     
   15799 H6         793.8538  -820.0004   246.7777 H6            1 RES     
   15800 H6         794.3930  -822.0647   245.5645 H6            1 RES     
   15801 H6         795.4157  -821.1494   244.3947 H6            1 RES     
   15802 H6         795.9004  -821.2544   246.1392 H6            1 RES     
   15803 C0         789.0675  -817.9866   249.0577 C0            1 RES     
   15804 C0         790.2031  -819.0604   249.1355 C0            1 RES     
   15805 C0         790.7897  -819.3371   247.7075 C0            1 RES     
   15806 C0         790.0032  -820.1644   246.6609 C0            1 RES     
   15807 C0         788.7398  -819.5340   246.0403 C0            1 RES     
   15808 C0         788.9366  -818.1580   245.3698 C0            1 RES     
   15809 C0         789.9603  -818.1618   244.2271 C0            1 RES     
   15810 C0         790.0552  -816.7787   243.5859 C0            1 RES     
   15811 C0         789.8486  -820.4359   249.7732 C0            1 RES     
   15812 C0         789.5729  -820.4027   251.2670 C0            1 RES     
   15813 C0         789.4143  -821.8009   251.8656 C0            1 RES     
   15814 C0         789.1905  -821.6875   253.3779 C0            1 RES     
   15815 C0         789.0313  -823.0675   254.0273 C0            1 RES     
   15816 C0         788.8705  -822.9918   255.5552 C0            1 RES     
   15817 C0         787.6009  -822.2447   255.9938 C0            1 RES     
   15818 C0         787.4535  -822.2583   257.5116 C0            1 RES     
   15819 H6         788.1761  -818.5092   248.6694 H6            1 RES     
   15820 H6         789.3355  -817.2864   248.2510 H6            1 RES     
   15821 H6         791.0410  -818.6278   249.7164 H6            1 RES     
   15822 H6         791.7277  -819.9097   247.8757 H6            1 RES     
   15823 H6         791.0753  -818.3882   247.2231 H6            1 RES     
   15824 H6         789.7457  -821.1574   247.0823 H6            1 RES     
   15825 H6         790.7063  -820.3637   245.8237 H6            1 RES     
   15826 H6         787.9445  -819.4544   246.8005 H6            1 RES     
   15827 H6         788.3572  -820.2416   245.2730 H6            1 RES     
   15828 H6         789.2438  -817.4012   246.1127 H6            1 RES     
   15829 H6         787.9504  -817.8416   244.9639 H6            1 RES     
   15830 H6         790.9654  -818.4327   244.6130 H6            1 RES     
   15831 H6         789.6569  -818.9003   243.4542 H6            1 RES     
   15832 H6         789.0706  -816.4783   243.1675 H6            1 RES     
   15833 H6         790.8008  -816.7961   242.7640 H6            1 RES     
   15834 H6         790.3737  -816.0249   244.3382 H6            1 RES     
   15835 H6         790.7331  -821.0987   249.6417 H6            1 RES     
   15836 H6         788.9860  -820.8986   249.2466 H6            1 RES     
   15837 H6         790.4410  -819.9285   251.7668 H6            1 RES     
   15838 H6         788.6383  -819.8455   251.4432 H6            1 RES     
   15839 H6         788.5516  -822.3162   251.3906 H6            1 RES     
   15840 H6         790.3378  -822.3936   251.6772 H6            1 RES     
   15841 H6         790.0601  -821.1682   253.8396 H6            1 RES     
   15842 H6         788.2773  -821.0804   253.5474 H6            1 RES     
   15843 H6         788.1562  -823.5923   253.5858 H6            1 RES     
   15844 H6         789.9426  -823.6679   253.8119 H6            1 RES     
   15845 H6         789.7660  -822.5018   255.9976 H6            1 RES     
   15846 H6         788.8198  -824.0340   255.9399 H6            1 RES     
   15847 H6         786.7088  -822.7297   255.5416 H6            1 RES     
   15848 H6         787.6404  -821.1851   255.6666 H6            1 RES     
   15849 H6         786.5299  -821.7129   257.7992 H6            1 RES     
   15850 H6         787.3809  -823.3025   257.8830 H6            1 RES     
   15851 H6         788.3246  -821.7594   257.9876 H6            1 RES     
   15852 C0         797.2413  -818.6945   260.0727 C0            1 RES     
   15853 C1         795.8753  -818.9569   259.4255 C1            1 RES     
   15854 C1         795.1074  -819.8091   260.1401 C1            1 RES     
   15855 S2         793.6130  -820.0639   259.4349 S2            1 RES     
   15856 C1         793.9587  -819.0122   258.1369 C1            1 RES     
   15857 C1         795.2433  -818.4746   258.2778 C1            1 RES     
   15858 C1         795.8402  -820.2103   261.2858 C1            1 RES     
   15859 C1         797.0757  -819.6294   261.2770 C1            1 RES     
   15860 C1         797.8612  -820.0196   262.3665 C1            1 RES     
   15861 C1         797.1694  -820.9343   263.2013 C1            1 RES     
   15862 S2         795.5969  -821.2023   262.5929 S2            1 RES     
   15863 H3         795.6907  -817.7749   257.5856 H3            1 RES     
   15864 H3         798.8692  -819.6652   262.5220 H3            1 RES     
   15865 N4         797.1990  -822.8718   266.4358 N4            1 RES     
   15866 C1         796.7653  -822.1946   265.3346 C1            1 RES     
   15867 C1         797.6785  -821.6412   264.4072 C1            1 RES     
   15868 C1         799.0479  -821.8374   264.6614 C1            1 RES     
   15869 N4         800.0513  -821.4155   263.8511 N4            1 RES     
   15870 S2         801.4006  -821.9690   264.6290 S2            1 RES     
   15871 N4         800.7993  -822.7346   265.9631 N4            1 RES     
   15872 C1         799.4637  -822.5652   265.8124 C1            1 RES     
   15873 C1         798.5189  -823.0701   266.6955 C1            1 RES     
   15874 H5         795.6989  -822.0806   265.1959 H5            1 RES     
   15875 C0         797.1530  -817.1807   260.5044 C0            1 RES     
   15876 C0         798.1149  -816.3676   261.4406 C0            1 RES     
   15877 C0         797.3556  -815.1067   261.9946 C0            1 RES     
   15878 C0         797.1202  -813.8668   261.0819 C0            1 RES     
   15879 C0         796.1843  -813.9955   259.8620 C0            1 RES     
   15880 C0         794.7600  -814.4991   260.1652 C0            1 RES     
   15881 C0         793.9707  -813.5627   261.0896 C0            1 RES     
   15882 C0         792.5517  -814.0837   261.3070 C0            1 RES     
   15883 C0         799.4582  -815.8778   260.8282 C0            1 RES     
   15884 C0         800.6057  -816.8828   260.8681 C0            1 RES     
   15885 C0         801.8362  -816.3287   260.1266 C0            1 RES     
   15886 C0         802.9942  -817.3385   260.0953 C0            1 RES     
   15887 C0         804.1105  -816.8558   259.1528 C0            1 RES     
   15888 C0         805.2156  -817.9011   258.9131 C0            1 RES     
   15889 C0         804.7060  -819.1340   258.1400 C0            1 RES     
   15890 C0         805.8391  -820.1007   257.8109 C0            1 RES     
   15891 H6         797.0109  -816.6078   259.5773 H6            1 RES     
   15892 H6         796.1947  -817.1565   261.0687 H6            1 RES     
   15893 H6         798.3120  -816.9810   262.3479 H6            1 RES     
   15894 H6         797.9755  -814.7221   262.8356 H6            1 RES     
   15895 H6         796.3936  -815.4125   262.4593 H6            1 RES     
   15896 H6         798.0984  -813.4850   260.7210 H6            1 RES     
   15897 H6         796.7024  -813.0694   261.7325 H6            1 RES     
   15898 H6         796.6494  -814.6383   259.0965 H6            1 RES     
   15899 H6         796.1049  -812.9946   259.3842 H6            1 RES     
   15900 H6         794.7933  -815.5113   260.6086 H6            1 RES     
   15901 H6         794.2181  -814.5752   259.1970 H6            1 RES     
   15902 H6         794.4691  -813.4868   262.0782 H6            1 RES     
   15903 H6         793.9154  -812.5506   260.6331 H6            1 RES     
   15904 H6         792.0126  -814.1556   260.3382 H6            1 RES     
   15905 H6         791.9967  -813.3884   261.9713 H6            1 RES     
   15906 H6         792.5783  -815.0868   261.7840 H6            1 RES     
   15907 H6         799.8445  -815.0223   261.4271 H6            1 RES     
   15908 H6         799.2650  -815.5061   259.7977 H6            1 RES     
   15909 H6         800.8617  -817.1246   261.9227 H6            1 RES     
   15910 H6         800.2831  -817.7919   260.3791 H6            1 RES     
   15911 H6         801.5234  -816.1167   259.0795 H6            1 RES     
   15912 H6         802.1832  -815.3794   260.5899 H6            1 RES     
   15913 H6         803.3927  -817.5118   261.1181 H6            1 RES     
   15914 H6         802.6045  -818.2968   259.7304 H6            1 RES     
   15915 H6         803.6814  -816.5877   258.1617 H6            1 RES     
   15916 H6         804.5633  -815.9377   259.5879 H6            1 RES     
   15917 H6         805.6681  -818.2084   259.8801 H6            1 RES     
   15918 H6         806.0033  -817.4145   258.2972 H6            1 RES     
   15919 H6         804.2381  -818.8063   257.1852 H6            1 RES     
   15920 H6         803.9565  -819.6878   258.7354 H6            1 RES     
   15921 H6         805.4333  -820.9674   257.2502 H6            1 RES     
   15922 H6         806.6059  -819.5990   257.1825 H6            1 RES     
   15923 H6         806.3137  -820.4704   258.7460 H6            1 RES     
   15924 C0         798.3283  -819.0325   258.9736 C0            1 RES     
   15925 C0         799.5426  -819.9992   259.1728 C0            1 RES     
   15926 C0         800.7272  -819.5867   258.2311 C0            1 RES     
   15927 C0         800.6810  -819.8691   256.7091 C0            1 RES     
   15928 C0         799.6909  -819.0552   255.8512 C0            1 RES     
   15929 C0         799.8203  -817.5206   255.9512 C0            1 RES     
   15930 C0         801.2008  -816.9839   255.5509 C0            1 RES     
   15931 C0         801.2272  -815.4586   255.6271 C0            1 RES     
   15932 C0         799.2891  -821.5220   258.9706 C0            1 RES     
   15933 C0         798.4062  -822.1742   260.0211 C0            1 RES     
   15934 C0         798.3458  -823.6952   259.8747 C0            1 RES     
   15935 C0         797.4813  -824.2830   260.9959 C0            1 RES     
   15936 C0         797.3945  -825.8108   260.8961 C0            1 RES     
   15937 C0         796.5873  -826.4379   262.0456 C0            1 RES     
   15938 C0         795.1143  -825.9991   262.0605 C0            1 RES     
   15939 C0         794.3444  -826.7009   263.1742 C0            1 RES     
   15940 H6         797.8387  -819.3432   258.0343 H6            1 RES     
   15941 H6         798.7385  -818.0373   258.7409 H6            1 RES     
   15942 H6         799.9252  -819.8570   260.2024 H6            1 RES     
   15943 H6         801.6113  -820.1519   258.5982 H6            1 RES     
   15944 H6         800.9568  -818.5150   258.3556 H6            1 RES     
   15945 H6         800.5132  -820.9509   256.5318 H6            1 RES     
   15946 H6         801.6980  -819.6521   256.3173 H6            1 RES     
   15947 H6         798.6544  -819.3461   256.0916 H6            1 RES     
   15948 H6         799.8505  -819.3479   254.7907 H6            1 RES     
   15949 H6         799.5935  -817.1747   256.9748 H6            1 RES     
   15950 H6         799.0560  -817.0775   255.2754 H6            1 RES     
   15951 H6         801.9795  -817.3770   256.2378 H6            1 RES     
   15952 H6         801.4394  -817.2998   254.5126 H6            1 RES     
   15953 H6         800.4732  -815.0241   254.9361 H6            1 RES     
   15954 H6         802.2316  -815.0854   255.3381 H6            1 RES     
   15955 H6         801.0069  -815.1194   256.6625 H6            1 RES     
   15956 H6         800.2752  -822.0333   259.0419 H6            1 RES     
   15957 H6         798.8690  -821.7161   257.9599 H6            1 RES     
   15958 H6         798.8396  -821.9577   261.0178 H6            1 RES     
   15959 H6         797.3824  -821.7785   259.9198 H6            1 RES     
   15960 H6         797.9162  -823.9595   258.8842 H6            1 RES     
   15961 H6         799.3735  -824.1174   259.9474 H6            1 RES     
   15962 H6         797.9215  -824.0090   261.9808 H6            1 RES     
   15963 H6         796.4672  -823.8392   260.9190 H6            1 RES     
   15964 H6         796.9421  -826.0990   259.9222 H6            1 RES     
   15965 H6         798.4248  -826.2279   260.9386 H6            1 RES     
   15966 H6         797.0654  -826.1806   263.0166 H6            1 RES     
   15967 H6         796.6274  -827.5422   261.9211 H6            1 RES     
   15968 H6         794.6422  -826.2474   261.0853 H6            1 RES     
   15969 H6         795.0359  -824.9054   262.2313 H6            1 RES     
   15970 H6         793.2858  -826.3657   263.1611 H6            1 RES     
   15971 H6         794.3715  -827.8015   263.0278 H6            1 RES     
   15972 H6         794.7848  -826.4514   264.1632 H6            1 RES     
   15973 C0         800.9611  -824.4580   271.3135 C0            1 RES     
   15974 C1         800.1048  -824.4305   270.0409 C1            1 RES     
   15975 C1         799.3332  -825.5310   269.8997 C1            1 RES     
   15976 S2         798.3876  -825.4734   268.5221 S2            1 RES     
   15977 C1         798.9907  -823.9408   268.0773 C1            1 RES     
   15978 C1         799.9253  -823.4959   269.0193 C1            1 RES     
   15979 C1         799.5824  -826.3901   271.0000 C1            1 RES     
   15980 C1         800.5274  -825.8400   271.8174 C1            1 RES     
   15981 C1         800.8439  -826.6625   272.9034 C1            1 RES     
   15982 C1         800.1024  -827.8714   272.8695 C1            1 RES     
   15983 S2         799.0506  -827.8712   271.5247 S2            1 RES     
   15984 H3         800.4438  -822.5488   268.9634 H3            1 RES     
   15985 H3         801.5742  -826.3939   273.6518 H3            1 RES     
   15986 N4         799.2156  -831.0609   274.6744 N4            1 RES     
   15987 C1         799.1433  -829.9691   273.8608 C1            1 RES     
   15988 C1         800.2032  -829.0354   273.7904 C1            1 RES     
   15989 C1         801.3383  -829.2941   274.5798 C1            1 RES     
   15990 N4         802.4587  -828.5286   274.5944 N4            1 RES     
   15991 S2         803.4388  -829.3430   275.6471 S2            1 RES     
   15992 N4         802.5291  -830.6426   276.1063 N4            1 RES     
   15993 C1         801.3859  -830.4539   275.4042 C1            1 RES     
   15994 C1         800.3056  -831.3250   275.4431 C1            1 RES     
   15995 H5         798.2434  -829.8291   273.2775 H5            1 RES     
   15996 C0         800.3409  -823.3055   272.1926 C0            1 RES     
   15997 C0         800.5905  -822.9819   273.7078 C0            1 RES     
   15998 C0         799.3922  -822.1255   274.2592 C0            1 RES     
   15999 C0         799.2794  -820.6126   273.9067 C0            1 RES     
   16000 C0         799.0103  -820.1971   272.4454 C0            1 RES     
   16001 C0         797.7569  -820.8158   271.7969 C0            1 RES     
   16002 C0         796.4523  -820.4168   272.4992 C0            1 RES     
   16003 C0         795.2442  -821.0120   271.7793 C0            1 RES     
   16004 C0         801.9077  -822.2376   274.0691 C0            1 RES     
   16005 C0         803.1322  -823.1255   274.2708 C0            1 RES     
   16006 C0         804.3903  -822.2680   274.5007 C0            1 RES     
   16007 C0         805.6553  -823.1278   274.6499 C0            1 RES     
   16008 C0         806.9159  -822.2458   274.6391 C0            1 RES     
   16009 C0         808.2317  -823.0442   274.5854 C0            1 RES     
   16010 C0         808.4077  -823.8055   273.2562 C0            1 RES     
   16011 C0         809.7671  -824.4927   273.1762 C0            1 RES     
   16012 H6         800.4742  -822.3787   271.6171 H6            1 RES     
   16013 H6         799.2584  -823.5609   272.1788 H6            1 RES     
   16014 H6         800.5233  -823.9346   274.2789 H6            1 RES     
   16015 H6         799.4854  -822.1487   275.3684 H6            1 RES     
   16016 H6         798.4272  -822.6302   274.0384 H6            1 RES     
   16017 H6         800.1964  -820.0866   274.2462 H6            1 RES     
   16018 H6         798.4486  -820.2054   274.5213 H6            1 RES     
   16019 H6         799.8944  -820.4135   271.8233 H6            1 RES     
   16020 H6         798.9059  -819.0905   272.4177 H6            1 RES     
   16021 H6         797.8383  -821.9180   271.7708 H6            1 RES     
   16022 H6         797.7126  -820.4582   270.7447 H6            1 RES     
   16023 H6         796.4499  -820.7848   273.5461 H6            1 RES     
   16024 H6         796.3572  -819.3093   272.5043 H6            1 RES     
   16025 H6         795.2016  -820.6504   270.7297 H6            1 RES     
   16026 H6         794.3120  -820.7052   272.2986 H6            1 RES     
   16027 H6         795.3033  -822.1216   271.7798 H6            1 RES     
   16028 H6         801.7876  -821.7368   275.0563 H6            1 RES     
   16029 H6         802.0881  -821.4446   273.3101 H6            1 RES     
   16030 H6         802.9655  -823.8121   275.1292 H6            1 RES     
   16031 H6         803.2740  -823.7223   273.3801 H6            1 RES     
   16032 H6         804.5112  -821.6127   273.6091 H6            1 RES     
   16033 H6         804.2711  -821.6233   275.3986 H6            1 RES     
   16034 H6         805.6103  -823.7357   275.5790 H6            1 RES     
   16035 H6         805.6974  -823.8262   273.8050 H6            1 RES     
   16036 H6         806.8980  -821.5683   273.7565 H6            1 RES     
   16037 H6         806.9086  -821.6136   275.5543 H6            1 RES     
   16038 H6         808.2894  -823.7451   275.4454 H6            1 RES     
   16039 H6         809.0656  -822.3138   274.6726 H6            1 RES     
   16040 H6         808.3264  -823.0922   272.4061 H6            1 RES     
   16041 H6         807.6317  -824.5856   273.1456 H6            1 RES     
   16042 H6         809.8566  -825.0213   272.2052 H6            1 RES     
   16043 H6         810.5845  -823.7437   273.2493 H6            1 RES     
   16044 H6         809.8726  -825.2344   273.9979 H6            1 RES     
   16045 C0         802.4577  -824.2375   270.8495 C0            1 RES     
   16046 C0         803.6638  -825.1618   271.2233 C0            1 RES     
   16047 C0         805.0005  -824.3412   271.2194 C0            1 RES     
   16048 C0         805.6735  -823.9058   269.8943 C0            1 RES     
   16049 C0         804.9792  -822.8148   269.0538 C0            1 RES     
   16050 C0         804.6851  -821.4887   269.7865 C0            1 RES     
   16051 C0         805.9335  -820.7977   270.3503 C0            1 RES     
   16052 C0         805.5616  -819.4715   271.0107 C0            1 RES     
   16053 C0         803.8902  -826.4340   270.3547 C0            1 RES     
   16054 C0         802.8278  -827.5107   270.4983 C0            1 RES     
   16055 C0         803.1987  -828.8021   269.7679 C0            1 RES     
   16056 C0         802.1072  -829.8529   270.0007 C0            1 RES     
   16057 C0         802.4368  -831.1719   269.2915 C0            1 RES     
   16058 C0         801.3927  -832.2693   269.5591 C0            1 RES     
   16059 C0         799.9952  -831.9184   269.0240 C0            1 RES     
   16060 C0         799.0166  -833.0653   269.2530 C0            1 RES     
   16061 H6         802.5026  -824.1010   269.7550 H6            1 RES     
   16062 H6         802.6784  -823.2356   271.2498 H6            1 RES     
   16063 H6         803.5272  -825.4919   272.2717 H6            1 RES     
   16064 H6         805.7514  -824.9910   271.7192 H6            1 RES     
   16065 H6         804.8935  -823.4367   271.8416 H6            1 RES     
   16066 H6         805.8592  -824.7940   269.2567 H6            1 RES     
   16067 H6         806.6767  -823.5119   270.1649 H6            1 RES     
   16068 H6         804.0407  -823.2065   268.6265 H6            1 RES     
   16069 H6         805.6385  -822.5925   268.1867 H6            1 RES     
   16070 H6         803.9702  -821.6484   270.6125 H6            1 RES     
   16071 H6         804.1989  -820.8055   269.0557 H6            1 RES     
   16072 H6         806.4156  -821.4410   271.1160 H6            1 RES     
   16073 H6         806.6579  -820.6043   269.5301 H6            1 RES     
   16074 H6         805.0930  -818.7888   270.2697 H6            1 RES     
   16075 H6         806.4732  -818.9851   271.4160 H6            1 RES     
   16076 H6         804.8490  -819.6423   271.8465 H6            1 RES     
   16077 H6         804.8429  -826.8996   270.6928 H6            1 RES     
   16078 H6         803.9984  -826.1596   269.2830 H6            1 RES     
   16079 H6         802.7319  -827.7584   271.5742 H6            1 RES     
   16080 H6         801.8823  -827.1354   270.0737 H6            1 RES     
   16081 H6         803.3068  -828.5996   268.6804 H6            1 RES     
   16082 H6         804.1661  -829.1879   270.1617 H6            1 RES     
   16083 H6         802.0085  -830.0439   271.0928 H6            1 RES     
   16084 H6         801.1484  -829.4455   269.6185 H6            1 RES     
   16085 H6         802.5236  -830.9989   268.1966 H6            1 RES     
   16086 H6         803.4180  -831.5396   269.6648 H6            1 RES     
   16087 H6         801.3369  -832.4680   270.6523 H6            1 RES     
   16088 H6         801.7431  -833.1967   269.0554 H6            1 RES     
   16089 H6         800.0558  -831.7096   267.9339 H6            1 RES     
   16090 H6         799.5942  -831.0223   269.5414 H6            1 RES     
   16091 H6         798.0176  -832.7847   268.8573 H6            1 RES     
   16092 H6         799.3640  -833.9799   268.7271 H6            1 RES     
   16093 H6         798.9221  -833.2800   270.3389 H6            1 RES     
   16094 C0         800.8085  -834.5950   279.7176 C0            1 RES     
   16095 C1         800.5942  -834.0146   278.3138 C1            1 RES     
   16096 C1         800.2416  -834.9496   277.4039 C1            1 RES     
   16097 S2         799.9866  -834.2969   275.8859 S2            1 RES     
   16098 C1         800.3381  -832.7155   276.4207 C1            1 RES     
   16099 C1         800.6490  -832.7234   277.7854 C1            1 RES     
   16100 C1         800.1963  -836.2074   278.0570 C1            1 RES     
   16101 C1         800.5441  -836.0650   279.3695 C1            1 RES     
   16102 C1         800.5550  -837.2823   280.0582 C1            1 RES     
   16103 C1         800.2090  -838.3618   279.2053 C1            1 RES     
   16104 S2         799.8610  -837.7775   277.6394 S2            1 RES     
   16105 H3         800.9005  -831.8419   278.3584 H3            1 RES     
   16106 H3         800.8115  -837.3645   281.1037 H3            1 RES     
   16107 N4         799.4260  -842.0420   278.9609 N4            1 RES     
   16108 C1         799.4488  -840.7022   278.7083 C1            1 RES     
   16109 C1         800.1827  -839.8137   279.5281 C1            1 RES     
   16110 C1         800.9008  -840.3754   280.5993 C1            1 RES     
   16111 N4         801.6914  -839.6739   281.4503 N4            1 RES     
   16112 S2         802.2944  -840.8537   282.4385 S2            1 RES     
   16113 N4         801.6135  -842.2409   281.8557 N4            1 RES     
   16114 C1         800.8680  -841.7812   280.8221 C1            1 RES     
   16115 C1         800.1147  -842.6002   279.9919 C1            1 RES     
   16116 H5         798.8770  -840.3342   277.8674 H5            1 RES     
   16117 C0         799.6195  -833.9791   280.5498 C0            1 RES     
   16118 C0         799.1174  -834.3701   281.9844 C0            1 RES     
   16119 C0         797.6328  -833.8832   282.1645 C0            1 RES     
   16120 C0         797.3243  -832.3774   282.4162 C0            1 RES     
   16121 C0         797.6109  -831.3523   281.2993 C0            1 RES     
   16122 C0         796.9382  -831.6393   279.9431 C0            1 RES     
   16123 C0         795.4055  -831.6309   280.0136 C0            1 RES     
   16124 C0         794.7971  -831.8637   278.6324 C0            1 RES     
   16125 C0         799.9378  -833.8397   283.1948 C0            1 RES     
   16126 C0         801.1330  -834.6946   283.6059 C0            1 RES     
   16127 C0         801.9307  -834.0054   284.7282 C0            1 RES     
   16128 C0         803.1769  -834.8105   285.1287 C0            1 RES     
   16129 C0         804.0732  -833.9904   286.0729 C0            1 RES     
   16130 C0         805.4353  -834.6480   286.3625 C0            1 RES     
   16131 C0         806.3343  -834.7217   285.1121 C0            1 RES     
   16132 C0         807.7193  -835.2673   285.4452 C0            1 RES     
   16133 H6         799.7600  -832.8895   280.5204 H6            1 RES     
   16134 H6         798.7403  -834.2253   279.9145 H6            1 RES     
   16135 H6         799.0426  -835.4793   282.0325 H6            1 RES     
   16136 H6         797.2488  -834.4033   283.0709 H6            1 RES     
   16137 H6         797.0035  -834.2554   281.3278 H6            1 RES     
   16138 H6         797.8564  -832.0410   283.3309 H6            1 RES     
   16139 H6         796.2408  -832.3112   282.6514 H6            1 RES     
   16140 H6         798.6988  -831.2437   281.1576 H6            1 RES     
   16141 H6         797.2684  -830.3554   281.6533 H6            1 RES     
   16142 H6         797.2824  -832.6084   279.5374 H6            1 RES     
   16143 H6         797.2612  -830.8457   279.2340 H6            1 RES     
   16144 H6         795.0464  -832.4325   280.6918 H6            1 RES     
   16145 H6         795.0570  -830.6479   280.3982 H6            1 RES     
   16146 H6         795.1196  -831.0675   277.9277 H6            1 RES     
   16147 H6         793.6893  -831.8462   278.7049 H6            1 RES     
   16148 H6         795.1123  -832.8518   278.2339 H6            1 RES     
   16149 H6         799.2947  -833.8423   284.1037 H6            1 RES     
   16150 H6         800.2291  -832.7853   282.9927 H6            1 RES     
   16151 H6         800.7862  -835.6988   283.9337 H6            1 RES     
   16152 H6         801.7769  -834.8208   282.7462 H6            1 RES     
   16153 H6         802.2591  -833.0151   284.3401 H6            1 RES     
   16154 H6         801.2921  -833.8392   285.6231 H6            1 RES     
   16155 H6         802.8877  -835.7738   285.6014 H6            1 RES     
   16156 H6         803.7384  -835.0502   284.2173 H6            1 RES     
   16157 H6         804.2712  -832.9877   285.6329 H6            1 RES     
   16158 H6         803.5280  -833.8408   287.0308 H6            1 RES     
   16159 H6         805.2872  -835.6606   286.7950 H6            1 RES     
   16160 H6         805.9532  -834.0172   287.1177 H6            1 RES     
   16161 H6         806.4546  -833.7032   284.6806 H6            1 RES     
   16162 H6         805.8888  -835.3850   284.3475 H6            1 RES     
   16163 H6         808.3353  -835.2974   284.5234 H6            1 RES     
   16164 H6         808.2243  -834.6139   286.1885 H6            1 RES     
   16165 H6         807.6389  -836.2977   285.8551 H6            1 RES     
   16166 C0         802.2606  -834.1544   280.1659 C0            1 RES     
   16167 C0         803.3753  -835.1201   280.6892 C0            1 RES     
   16168 C0         804.3497  -834.3561   281.6520 C0            1 RES     
   16169 C0         805.3967  -833.3533   281.1075 C0            1 RES     
   16170 C0         804.8878  -832.0163   280.5312 C0            1 RES     
   16171 C0         804.0045  -831.1720   281.4740 C0            1 RES     
   16172 C0         804.6916  -830.7824   282.7893 C0            1 RES     
   16173 C0         803.7711  -829.9070   283.6376 C0            1 RES     
   16174 C0         804.2442  -835.8564   279.6276 C0            1 RES     
   16175 C0         803.5110  -836.9056   278.8090 C0            1 RES     
   16176 C0         804.4521  -837.7183   277.9187 C0            1 RES     
   16177 C0         803.6494  -838.7854   277.1658 C0            1 RES     
   16178 C0         804.5520  -839.6333   276.2614 C0            1 RES     
   16179 C0         803.7870  -840.7566   275.5410 C0            1 RES     
   16180 C0         802.7099  -840.2337   274.5772 C0            1 RES     
   16181 C0         802.0303  -841.3821   273.8392 C0            1 RES     
   16182 H6         802.7320  -833.5368   279.3819 H6            1 RES     
   16183 H6         802.0453  -833.4371   280.9734 H6            1 RES     
   16184 H6         802.8893  -835.8916   281.3179 H6            1 RES     
   16185 H6         804.9480  -835.1444   282.1586 H6            1 RES     
   16186 H6         803.7771  -833.8335   282.4366 H6            1 RES     
   16187 H6         806.0408  -833.8527   280.3554 H6            1 RES     
   16188 H6         806.0647  -833.1016   281.9591 H6            1 RES     
   16189 H6         804.3423  -832.1938   279.5889 H6            1 RES     
   16190 H6         805.7790  -831.4110   280.2571 H6            1 RES     
   16191 H6         803.0672  -831.7042   281.7129 H6            1 RES     
   16192 H6         803.7276  -830.2435   280.9278 H6            1 RES     
   16193 H6         804.9406  -831.6912   283.3764 H6            1 RES     
   16194 H6         805.6267  -830.2225   282.5725 H6            1 RES     
   16195 H6         803.5140  -828.9739   283.0917 H6            1 RES     
   16196 H6         804.2798  -829.6358   284.5860 H6            1 RES     
   16197 H6         802.8342  -830.4535   283.8811 H6            1 RES     
   16198 H6         805.0437  -836.4027   280.1765 H6            1 RES     
   16199 H6         804.7285  -835.1247   278.9453 H6            1 RES     
   16200 H6         803.0293  -837.6152   279.5108 H6            1 RES     
   16201 H6         802.7761  -836.4006   278.1610 H6            1 RES     
   16202 H6         804.9601  -837.0436   277.1962 H6            1 RES     
   16203 H6         805.2217  -838.2183   278.5490 H6            1 RES     
   16204 H6         803.1449  -839.4518   277.9009 H6            1 RES     
   16205 H6         802.8772  -838.2713   276.5570 H6            1 RES     
   16206 H6         805.0515  -838.9819   275.5115 H6            1 RES     
   16207 H6         805.3381  -840.1075   276.8894 H6            1 RES     
   16208 H6         803.3214  -841.4294   276.2948 H6            1 RES     
   16209 H6         804.5274  -841.3477   274.9588 H6            1 RES     
   16210 H6         803.1760  -839.5532   273.8321 H6            1 RES     
   16211 H6         801.9269  -839.6778   275.1335 H6            1 RES     
   16212 H6         801.2588  -840.9759   273.1515 H6            1 RES     
   16213 H6         802.7744  -841.9519   273.2431 H6            1 RES     
   16214 H6         801.5378  -842.0668   274.5624 H6            1 RES     
   16215 C0         799.5167  -847.4372   282.3290 C0            1 RES     
   16216 C1         799.7874  -846.2898   281.3474 C1            1 RES     
   16217 C1         800.0879  -846.7201   280.1020 C1            1 RES     
   16218 S2         800.3544  -845.4575   279.0389 S2            1 RES     
   16219 C1         800.0586  -844.2813   280.2387 C1            1 RES     
   16220 C1         799.7527  -844.8983   281.4571 C1            1 RES     
   16221 C1         800.0701  -848.1380   280.1075 C1            1 RES     
   16222 C1         799.7828  -848.5966   281.3610 C1            1 RES     
   16223 C1         799.7893  -849.9931   281.4374 C1            1 RES     
   16224 C1         800.1056  -850.5778   280.1842 C1            1 RES     
   16225 S2         800.3276  -849.3567   279.0120 S2            1 RES     
   16226 H3         799.5196  -844.3658   282.3686 H3            1 RES     
   16227 H3         799.5890  -850.5333   282.3504 H3            1 RES     
   16228 N4         800.4001  -853.7666   278.1937 N4            1 RES     
   16229 C1         800.2088  -852.4572   278.5230 C1            1 RES     
   16230 C1         800.2908  -852.0190   279.8651 C1            1 RES     
   16231 C1         800.5968  -852.9878   280.8379 C1            1 RES     
   16232 N4         800.7595  -852.7291   282.1600 N4            1 RES     
   16233 S2         801.1472  -854.2141   282.7735 S2            1 RES     
   16234 N4         801.1295  -855.2030   281.4509 N4            1 RES     
   16235 C1         800.8078  -854.3427   280.4550 C1            1 RES     
   16236 C1         800.6968  -854.7148   279.1220 C1            1 RES     
   16237 H5         799.9787  -851.7619   277.7273 H5            1 RES     
   16238 C0         797.9781  -847.2915   282.6413 C0            1 RES     
   16239 C0         797.0233  -848.3003   283.3718 C0            1 RES     
   16240 C0         795.5342  -847.9816   282.9792 C0            1 RES     
   16241 C0         794.7999  -846.7598   283.6070 C0            1 RES     
   16242 C0         795.2807  -845.3342   283.2652 C0            1 RES     
   16243 C0         795.3371  -844.9921   281.7639 C0            1 RES     
   16244 C0         793.9661  -845.0516   281.0775 C0            1 RES     
   16245 C0         794.0763  -844.6484   279.6087 C0            1 RES     
   16246 C0         797.1002  -848.3561   284.9244 C0            1 RES     
   16247 C0         798.1730  -849.2770   285.4983 C0            1 RES     
   16248 C0         798.2296  -849.1517   287.0320 C0            1 RES     
   16249 C0         799.3397  -850.0222   287.6415 C0            1 RES     
   16250 C0         799.5269  -849.6975   289.1338 C0            1 RES     
   16251 C0         800.7502  -850.3837   289.7695 C0            1 RES     
   16252 C0         802.0840  -849.8634   289.1973 C0            1 RES     
   16253 C0         803.2823  -850.4689   289.9215 C0            1 RES     
   16254 H6         797.8544  -846.3035   283.1064 H6            1 RES     
   16255 H6         797.5383  -847.2439   281.6207 H6            1 RES     
   16256 H6         797.2012  -849.3128   282.9458 H6            1 RES     
   16257 H6         794.9375  -848.8640   283.3031 H6            1 RES     
   16258 H6         795.4280  -847.9494   281.8736 H6            1 RES     
   16259 H6         794.7964  -846.8614   284.7127 H6            1 RES     
   16260 H6         793.7377  -846.8319   283.2904 H6            1 RES     
   16261 H6         796.2656  -845.1485   283.7247 H6            1 RES     
   16262 H6         794.5943  -844.6133   283.7606 H6            1 RES     
   16263 H6         796.0404  -845.6649   281.2395 H6            1 RES     
   16264 H6         795.7317  -843.9565   281.6705 H6            1 RES     
   16265 H6         793.5550  -846.0812   281.1260 H6            1 RES     
   16266 H6         793.2647  -844.3569   281.5886 H6            1 RES     
   16267 H6         794.4680  -843.6125   279.5195 H6            1 RES     
   16268 H6         793.0735  -844.6909   279.1338 H6            1 RES     
   16269 H6         794.7557  -845.3421   279.0685 H6            1 RES     
   16270 H6         796.1531  -848.7841   285.3238 H6            1 RES     
   16271 H6         797.1898  -847.3179   285.3138 H6            1 RES     
   16272 H6         797.9695  -850.3285   285.1999 H6            1 RES     
   16273 H6         799.1305  -848.9860   285.0883 H6            1 RES     
   16274 H6         798.4459  -848.0858   287.2688 H6            1 RES     
   16275 H6         797.2523  -849.4228   287.4875 H6            1 RES     
   16276 H6         799.1152  -851.1014   287.5005 H6            1 RES     
   16277 H6         800.2741  -849.8110   287.1072 H6            1 RES     
   16278 H6         799.6484  -848.6000   289.2713 H6            1 RES     
   16279 H6         798.6084  -850.0097   289.6778 H6            1 RES     
   16280 H6         800.6779  -851.4855   289.6466 H6            1 RES     
   16281 H6         800.7322  -850.1509   290.8567 H6            1 RES     
   16282 H6         802.1303  -848.7574   289.3098 H6            1 RES     
   16283 H6         802.1771  -850.1193   288.1254 H6            1 RES     
   16284 H6         804.2190  -850.0649   289.4862 H6            1 RES     
   16285 H6         803.2527  -850.2109   291.0018 H6            1 RES     
   16286 H6         803.2829  -851.5749   289.8068 H6            1 RES     
   16287 C0         800.4902  -847.2140   283.5562 C0            1 RES     
   16288 C0         801.4714  -848.2862   284.1363 C0            1 RES     
   16289 C0         801.7323  -848.0181   285.6595 C0            1 RES     
   16290 C0         802.6399  -846.8539   286.1277 C0            1 RES     
   16291 C0         802.1221  -845.4128   285.9436 C0            1 RES     
   16292 C0         800.7495  -845.1065   286.5792 C0            1 RES     
   16293 C0         800.6987  -845.3382   288.0950 C0            1 RES     
   16294 C0         799.3263  -844.9623   288.6504 C0            1 RES     
   16295 C0         802.8562  -848.4428   283.4422 C0            1 RES     
   16296 C0         802.8126  -849.0249   282.0393 C0            1 RES     
   16297 C0         804.2059  -849.3254   281.4852 C0            1 RES     
   16298 C0         804.0779  -849.9548   280.0933 C0            1 RES     
   16299 C0         805.4520  -850.2811   279.4959 C0            1 RES     
   16300 C0         805.3565  -850.9744   278.1261 C0            1 RES     
   16301 C0         804.7003  -850.0970   277.0481 C0            1 RES     
   16302 C0         804.6929  -850.8027   275.6963 C0            1 RES     
   16303 H6         801.0881  -846.2980   283.4084 H6            1 RES     
   16304 H6         799.7888  -846.9445   284.3614 H6            1 RES     
   16305 H6         800.9632  -849.2694   284.0959 H6            1 RES     
   16306 H6         802.2272  -848.9364   286.0439 H6            1 RES     
   16307 H6         800.7747  -847.9200   286.1981 H6            1 RES     
   16308 H6         803.6405  -846.9443   285.6584 H6            1 RES     
   16309 H6         802.8021  -846.9993   287.2174 H6            1 RES     
   16310 H6         802.0878  -845.1574   284.8710 H6            1 RES     
   16311 H6         802.8732  -844.7288   286.3950 H6            1 RES     
   16312 H6         799.9557  -845.7104   286.1059 H6            1 RES     
   16313 H6         800.5188  -844.0379   286.3740 H6            1 RES     
   16314 H6         800.8831  -846.4083   288.3263 H6            1 RES     
   16315 H6         801.4746  -844.7196   288.5952 H6            1 RES     
   16316 H6         799.1117  -843.8893   288.4568 H6            1 RES     
   16317 H6         799.3036  -845.1377   289.7461 H6            1 RES     
   16318 H6         798.5344  -845.5810   288.1754 H6            1 RES     
   16319 H6         803.4515  -849.1599   284.0507 H6            1 RES     
   16320 H6         803.3951  -847.4708   283.4243 H6            1 RES     
   16321 H6         802.2625  -849.9859   282.0823 H6            1 RES     
   16322 H6         802.3256  -848.2983   281.3685 H6            1 RES     
   16323 H6         804.7961  -848.3855   281.4254 H6            1 RES     
   16324 H6         804.7295  -850.0387   282.1610 H6            1 RES     
   16325 H6         803.4835  -850.8929   280.1679 H6            1 RES     
   16326 H6         803.5395  -849.2387   279.4386 H6            1 RES     
   16327 H6         806.0519  -849.3499   279.4014 H6            1 RES     
   16328 H6         805.9848  -850.9701   280.1878 H6            1 RES     
   16329 H6         804.7896  -851.9258   278.2317 H6            1 RES     
   16330 H6         806.3910  -851.2213   277.8014 H6            1 RES     
   16331 H6         805.2621  -849.1426   276.9524 H6            1 RES     
   16332 H6         803.6480  -849.8707   277.3181 H6            1 RES     
   16333 H6         804.2144  -850.1471   274.9385 H6            1 RES     
   16334 H6         805.7315  -851.0242   275.3709 H6            1 RES     
   16335 H6         804.1183  -851.7515   275.7604 H6            1 RES     
   16336 C0         800.3317  -860.0981   278.8005 C0            1 RES     
   16337 C1         800.7122  -858.6249   278.6043 C1            1 RES     
   16338 C1         801.6058  -858.4386   277.6077 C1            1 RES     
   16339 S2         801.9899  -856.8260   277.3899 S2            1 RES     
   16340 C1         800.9425  -856.3265   278.6405 C1            1 RES     
   16341 C1         800.3046  -857.4347   279.2098 C1            1 RES     
   16342 C1         801.9249  -859.7057   277.0569 C1            1 RES     
   16343 C1         801.2508  -860.6879   277.7238 C1            1 RES     
   16344 C1         801.5559  -861.9675   277.2487 C1            1 RES     
   16345 C1         802.5033  -861.9150   276.1942 C1            1 RES     
   16346 S2         802.9046  -860.2910   275.8531 S2            1 RES     
   16347 H3         799.5874  -857.3773   280.0167 H3            1 RES     
   16348 H3         801.1217  -862.8666   277.6594 H3            1 RES     
   16349 N4         804.3636  -863.8513   273.5471 N4            1 RES     
   16350 C1         803.7454  -862.8371   274.2169 C1            1 RES     
   16351 C1         803.1431  -863.0514   275.4785 C1            1 RES     
   16352 C1         803.2277  -864.3481   276.0169 C1            1 RES     
   16353 N4         802.7471  -864.7116   277.2327 N4            1 RES     
   16354 S2         803.1783  -866.3043   277.3301 S2            1 RES     
   16355 N4         803.9593  -866.5883   275.9030 N4            1 RES     
   16356 C1         803.8966  -865.3783   275.2969 C1            1 RES     
   16357 C1         804.4540  -865.1098   274.0540 C1            1 RES     
   16358 H5         803.7170  -861.8626   273.7490 H5            1 RES     
   16359 C0         798.8204  -860.1445   278.3539 C0            1 RES     
   16360 C0         797.9158  -861.3961   278.0741 C0            1 RES     
   16361 C0         796.7057  -860.9684   277.1652 C0            1 RES     
   16362 C0         795.5073  -860.1796   277.7716 C0            1 RES     
   16363 C0         795.7337  -858.7430   278.2866 C0            1 RES     
   16364 C0         796.3390  -857.7578   277.2681 C0            1 RES     
   16365 C0         795.4467  -857.5317   276.0405 C0            1 RES     
   16366 C0         796.0708  -856.5055   275.0973 C0            1 RES     
   16367 C0         797.3371  -862.1461   279.3078 C0            1 RES     
   16368 C0         798.2495  -863.2022   279.9245 C0            1 RES     
   16369 C0         797.6181  -863.7828   281.2033 C0            1 RES     
   16370 C0         798.5361  -864.8092   281.8855 C0            1 RES     
   16371 C0         797.9889  -865.1902   283.2721 C0            1 RES     
   16372 C0         798.9508  -866.0616   284.1009 C0            1 RES     
   16373 C0         800.2354  -865.3085   284.5008 C0            1 RES     
   16374 C0         801.1187  -866.1485   285.4179 C0            1 RES     
   16375 H6         798.2799  -859.4767   279.0393 H6            1 RES     
   16376 H6         798.8581  -859.6505   277.3580 H6            1 RES     
   16377 H6         798.4928  -862.1022   277.4362 H6            1 RES     
   16378 H6         796.2566  -861.9152   276.7892 H6            1 RES     
   16379 H6         797.0748  -860.4422   276.2588 H6            1 RES     
   16380 H6         795.0590  -860.7702   278.5980 H6            1 RES     
   16381 H6         794.7308  -860.1250   276.9792 H6            1 RES     
   16382 H6         796.3548  -858.7627   279.1972 H6            1 RES     
   16383 H6         794.7523  -858.3399   278.6194 H6            1 RES     
   16384 H6         797.3360  -858.1045   276.9394 H6            1 RES     
   16385 H6         796.4772  -856.7832   277.7858 H6            1 RES     
   16386 H6         795.3117  -858.4811   275.4820 H6            1 RES     
   16387 H6         794.4519  -857.1595   276.3682 H6            1 RES     
   16388 H6         796.2047  -855.5326   275.6169 H6            1 RES     
   16389 H6         795.4064  -856.3516   274.2211 H6            1 RES     
   16390 H6         797.0586  -856.8643   274.7365 H6            1 RES     
   16391 H6         796.4418  -862.7300   278.9958 H6            1 RES     
   16392 H6         797.0033  -861.3945   280.0569 H6            1 RES     
   16393 H6         798.4484  -864.0095   279.1863 H6            1 RES     
   16394 H6         799.1909  -862.7355   280.1804 H6            1 RES     
   16395 H6         797.4532  -862.9345   281.9049 H6            1 RES     
   16396 H6         796.6353  -864.2528   280.9811 H6            1 RES     
   16397 H6         798.6564  -865.7128   281.2499 H6            1 RES     
   16398 H6         799.5291  -864.3580   282.0019 H6            1 RES     
   16399 H6         797.7758  -864.2711   283.8620 H6            1 RES     
   16400 H6         797.0296  -865.7356   283.1321 H6            1 RES     
   16401 H6         799.2017  -866.9901   283.5448 H6            1 RES     
   16402 H6         798.4182  -866.3461   285.0346 H6            1 RES     
   16403 H6         799.9651  -864.3722   285.0378 H6            1 RES     
   16404 H6         800.8326  -865.0498   283.6066 H6            1 RES     
   16405 H6         802.0259  -865.5700   285.6874 H6            1 RES     
   16406 H6         800.5729  -866.4076   286.3503 H6            1 RES     
   16407 H6         801.4308  -867.0828   284.9021 H6            1 RES     
   16408 C0         800.6081  -860.4318   280.3224 C0            1 RES     
   16409 C0         801.4739  -861.6277   280.8411 C0            1 RES     
   16410 C0         800.9915  -862.0715   282.2659 C0            1 RES     
   16411 C0         801.3089  -861.2244   283.5230 C0            1 RES     
   16412 C0         800.5922  -859.8680   283.6822 C0            1 RES     
   16413 C0         799.0504  -859.9137   283.6317 C0            1 RES     
   16414 C0         798.4175  -860.8069   284.7067 C0            1 RES     
   16415 C0         796.8934  -860.7542   284.6202 C0            1 RES     
   16416 C0         803.0157  -861.4218   280.9093 C0            1 RES     
   16417 C0         803.7115  -861.3074   279.5634 C0            1 RES     
   16418 C0         805.2355  -861.2930   279.6901 C0            1 RES     
   16419 C0         805.8642  -861.2277   278.2936 C0            1 RES     
   16420 C0         807.3958  -861.2171   278.3670 C0            1 RES     
   16421 C0         808.0587  -861.2181   276.9789 C0            1 RES     
   16422 C0         807.7346  -859.9632   276.1527 C0            1 RES     
   16423 C0         808.4698  -859.9814   274.8167 C0            1 RES     
   16424 H6         800.9756  -859.5345   280.8500 H6            1 RES     
   16425 H6         799.5895  -860.5715   280.7168 H6            1 RES     
   16426 H6         801.2808  -862.4977   280.1835 H6            1 RES     
   16427 H6         801.4789  -863.0528   282.4542 H6            1 RES     
   16428 H6         799.9029  -862.2494   282.2608 H6            1 RES     
   16429 H6         802.4039  -861.0700   283.6063 H6            1 RES     
   16430 H6         801.0225  -861.8431   284.4005 H6            1 RES     
   16431 H6         800.9569  -859.1561   282.9226 H6            1 RES     
   16432 H6         800.8941  -859.4452   284.6650 H6            1 RES     
   16433 H6         798.7013  -860.2563   282.6419 H6            1 RES     
   16434 H6         798.6819  -858.8734   283.7705 H6            1 RES     
   16435 H6         798.7347  -861.8614   284.5654 H6            1 RES     
   16436 H6         798.7360  -860.4638   285.7146 H6            1 RES     
   16437 H6         796.5330  -859.7149   284.7776 H6            1 RES     
   16438 H6         796.4501  -861.4066   285.4011 H6            1 RES     
   16439 H6         796.5502  -861.1091   283.6243 H6            1 RES     
   16440 H6         803.4479  -862.3228   281.3996 H6            1 RES     
   16441 H6         803.2630  -860.5347   281.5318 H6            1 RES     
   16442 H6         803.4411  -862.1963   278.9594 H6            1 RES     
   16443 H6         803.3981  -860.3674   279.0805 H6            1 RES     
   16444 H6         805.5531  -860.4144   280.2923 H6            1 RES     
   16445 H6         805.5756  -862.2226   280.1998 H6            1 RES     
   16446 H6         805.5361  -862.1114   277.7017 H6            1 RES     
   16447 H6         805.5016  -860.3054   277.7943 H6            1 RES     
   16448 H6         807.7387  -860.3304   278.9433 H6            1 RES     
   16449 H6         807.7314  -862.1321   278.9032 H6            1 RES     
   16450 H6         807.7447  -862.1271   276.4197 H6            1 RES     
   16451 H6         809.1591  -861.2677   277.1320 H6            1 RES     
   16452 H6         808.0392  -859.0562   276.7184 H6            1 RES     
   16453 H6         806.6468  -859.9076   275.9402 H6            1 RES     
   16454 H6         808.2176  -859.0651   274.2424 H6            1 RES     
   16455 H6         809.5679  -860.0080   274.9809 H6            1 RES     
   16456 H6         808.1661  -860.8694   274.2221 H6            1 RES     
   16457 C0         805.5511  -869.7726   271.5499 C0            1 RES     
   16458 C1         805.6167  -868.3617   272.1486 C1            1 RES     
   16459 C1         806.7762  -867.7245   271.8729 C1            1 RES     
   16460 S2         806.8209  -866.1794   272.5103 S2            1 RES     
   16461 C1         805.2562  -866.3235   273.1746 C1            1 RES     
   16462 C1         804.7206  -867.5835   272.8841 C1            1 RES     
   16463 C1         807.5899  -868.5979   271.1077 C1            1 RES     
   16464 C1         806.9513  -869.7907   270.9247 C1            1 RES     
   16465 C1         807.7238  -870.7098   270.2072 C1            1 RES     
   16466 C1         808.9867  -870.1645   269.8607 C1            1 RES     
   16467 S2         809.0961  -868.5531   270.4141 S2            1 RES     
   16468 H3         803.7379  -867.9136   273.1906 H3            1 RES     
   16469 H3         807.3838  -871.7071   269.9718 H3            1 RES     
   16470 N4         812.1960  -870.6515   267.9423 N4            1 RES     
   16471 C1         811.1305  -870.0642   268.5581 C1            1 RES     
   16472 C1         810.1196  -870.8395   269.1723 C1            1 RES     
   16473 C1         810.2732  -872.2372   269.1361 C1            1 RES     
   16474 N4         809.4234  -873.1221   269.7161 N4            1 RES     
   16475 S2         810.1374  -874.5763   269.3883 S2            1 RES     
   16476 N4         811.4932  -874.1664   268.5390 N4            1 RES     
   16477 C1         811.4081  -872.8149   268.4995 C1            1 RES     
   16478 C1         812.3589  -872.0007   267.8989 C1            1 RES     
   16479 H5         811.0727  -868.9844   268.5528 H5            1 RES     
   16480 C0         804.4314  -869.6465   270.4471 C0            1 RES     
   16481 C0         804.0574  -870.6566   269.3056 C0            1 RES     
   16482 C0         803.2844  -869.8919   268.1694 C0            1 RES     
   16483 C0         801.7925  -869.4902   268.3665 C0            1 RES     
   16484 C0         801.4301  -868.4369   269.4342 C0            1 RES     
   16485 C0         802.1572  -867.0842   269.3092 C0            1 RES     
   16486 C0         801.8452  -866.3478   267.9997 C0            1 RES     
   16487 C0         802.5469  -864.9921   267.9586 C0            1 RES     
   16488 C0         803.2063  -871.8964   269.7030 C0            1 RES     
   16489 C0         803.9926  -873.0962   270.2232 C0            1 RES     
   16490 C0         803.0360  -874.2065   270.6957 C0            1 RES     
   16491 C0         803.7924  -875.4092   271.2814 C0            1 RES     
   16492 C0         802.8162  -876.3884   271.9563 C0            1 RES     
   16493 C0         803.5118  -877.5182   272.7381 C0            1 RES     
   16494 C0         804.2853  -876.9982   273.9664 C0            1 RES     
   16495 C0         804.8673  -878.1417   274.7913 C0            1 RES     
   16496 H6         803.5095  -869.3734   270.9795 H6            1 RES     
   16497 H6         804.7697  -868.7549   269.8746 H6            1 RES     
   16498 H6         805.0001  -870.9846   268.8136 H6            1 RES     
   16499 H6         803.2767  -870.5764   267.2914 H6            1 RES     
   16500 H6         803.8666  -869.0044   267.8406 H6            1 RES     
   16501 H6         801.1903  -870.4008   268.5693 H6            1 RES     
   16502 H6         801.4376  -869.1009   267.3887 H6            1 RES     
   16503 H6         801.5909  -868.8521   270.4428 H6            1 RES     
   16504 H6         800.3357  -868.2504   269.3736 H6            1 RES     
   16505 H6         803.2502  -867.2219   269.4022 H6            1 RES     
   16506 H6         801.8265  -866.4461   270.1580 H6            1 RES     
   16507 H6         802.1899  -866.9448   267.1301 H6            1 RES     
   16508 H6         800.7484  -866.1869   267.9167 H6            1 RES     
   16509 H6         802.2120  -864.3565   268.8062 H6            1 RES     
   16510 H6         802.3019  -864.4738   267.0078 H6            1 RES     
   16511 H6         803.6483  -865.1262   268.0174 H6            1 RES     
   16512 H6         802.6953  -872.2964   268.7982 H6            1 RES     
   16513 H6         802.4180  -871.5727   270.4181 H6            1 RES     
   16514 H6         804.6717  -873.4776   269.4298 H6            1 RES     
   16515 H6         804.5955  -872.7743   271.0614 H6            1 RES     
   16516 H6         802.3925  -873.7712   271.4928 H6            1 RES     
   16517 H6         802.3834  -874.5475   269.8627 H6            1 RES     
   16518 H6         804.3821  -875.9247   270.4931 H6            1 RES     
   16519 H6         804.5032  -875.0368   272.0293 H6            1 RES     
   16520 H6         802.1611  -875.8405   272.6697 H6            1 RES     
   16521 H6         802.1672  -876.8333   271.1701 H6            1 RES     
   16522 H6         804.1878  -878.0888   272.0660 H6            1 RES     
   16523 H6         802.7177  -878.2063   273.1020 H6            1 RES     
   16524 H6         803.5987  -876.4124   274.6170 H6            1 RES     
   16525 H6         805.1252  -876.3496   273.6549 H6            1 RES     
   16526 H6         805.4079  -877.7271   275.6666 H6            1 RES     
   16527 H6         804.0562  -878.8068   275.1576 H6            1 RES     
   16528 H6         805.5810  -878.7343   274.1784 H6            1 RES     
   16529 C0         805.2258  -870.7520   272.7493 C0            1 RES     
   16530 C0         806.0462  -872.0331   273.1162 C0            1 RES     
   16531 C0         805.1253  -873.0841   273.8283 C0            1 RES     
   16532 C0         804.6676  -872.8901   275.2950 C0            1 RES     
   16533 C0         803.6514  -871.7691   275.5943 C0            1 RES     
   16534 C0         802.3367  -871.8221   274.7877 C0            1 RES     
   16535 C0         801.5397  -873.1191   274.9792 C0            1 RES     
   16536 C0         800.2324  -873.0678   274.1909 C0            1 RES     
   16537 C0         807.3153  -871.8452   273.9983 C0            1 RES     
   16538 C0         808.4674  -871.1187   273.3249 C0            1 RES     
   16539 C0         809.7416  -871.1284   274.1705 C0            1 RES     
   16540 C0         810.8682  -870.4242   273.4058 C0            1 RES     
   16541 C0         812.1727  -870.4131   274.2119 C0            1 RES     
   16542 C0         813.3414  -869.7711   273.4449 C0            1 RES     
   16543 C0         813.1107  -868.2860   273.1228 C0            1 RES     
   16544 C0         814.3245  -867.6814   272.4252 C0            1 RES     
   16545 H6         805.1096  -870.1822   273.6876 H6            1 RES     
   16546 H6         804.2016  -871.0782   272.5098 H6            1 RES     
   16547 H6         806.3635  -872.5159   272.1712 H6            1 RES     
   16548 H6         805.7045  -874.0331   273.8347 H6            1 RES     
   16549 H6         804.2187  -873.2653   273.2266 H6            1 RES     
   16550 H6         805.5521  -872.7651   275.9521 H6            1 RES     
   16551 H6         804.1919  -873.8451   275.6057 H6            1 RES     
   16552 H6         804.1233  -870.7825   275.4501 H6            1 RES     
   16553 H6         803.3975  -871.8295   276.6749 H6            1 RES     
   16554 H6         802.5334  -871.6880   273.7097 H6            1 RES     
   16555 H6         801.7087  -870.9657   275.1184 H6            1 RES     
   16556 H6         802.1275  -873.9881   274.6161 H6            1 RES     
   16557 H6         801.3085  -873.2616   276.0567 H6            1 RES     
   16558 H6         799.6037  -872.2205   274.5396 H6            1 RES     
   16559 H6         799.6687  -874.0127   274.3365 H6            1 RES     
   16560 H6         800.4397  -872.9418   273.1061 H6            1 RES     
   16561 H6         807.6988  -872.8604   274.2458 H6            1 RES     
   16562 H6         807.0563  -871.3301   274.9487 H6            1 RES     
   16563 H6         808.6989  -871.6443   272.3771 H6            1 RES     
   16564 H6         808.1752  -870.0694   273.1560 H6            1 RES     
   16565 H6         809.5546  -870.6101   275.1358 H6            1 RES     
   16566 H6         810.0433  -872.1800   274.3774 H6            1 RES     
   16567 H6         811.0430  -870.9521   272.4415 H6            1 RES     
   16568 H6         810.5442  -869.3845   273.1934 H6            1 RES     
   16569 H6         812.0168  -869.8752   275.1724 H6            1 RES     
   16570 H6         812.4556  -871.4637   274.4430 H6            1 RES     
   16571 H6         813.5205  -870.3359   272.5033 H6            1 RES     
   16572 H6         814.2495  -869.8595   274.0806 H6            1 RES     
   16573 H6         812.9211  -867.7262   274.0642 H6            1 RES     
   16574 H6         812.2374  -868.1652   272.4489 H6            1 RES     
   16575 H6         814.1302  -866.6104   272.2053 H6            1 RES     
   16576 H6         815.2205  -867.7542   273.0775 H6            1 RES     
   16577 H6         814.5227  -868.2111   271.4691 H6            1 RES     
   16578 C0         815.4888  -875.0008   264.6710 C0            1 RES     
   16579 C1         814.9565  -874.0121   265.7162 C1            1 RES     
   16580 C1         815.9351  -873.2928   266.3091 C1            1 RES     
   16581 S2         815.3363  -872.2023   267.4262 S2            1 RES     
   16582 C1         813.7215  -872.6669   267.1313 C1            1 RES     
   16583 C1         813.6765  -873.6713   266.1575 C1            1 RES     
   16584 C1         817.1785  -873.7070   265.7678 C1            1 RES     
   16585 C1         816.9818  -874.7022   264.8542 C1            1 RES     
   16586 C1         818.1797  -875.1797   264.3126 C1            1 RES     
   16587 C1         819.3005  -874.5079   264.8648 C1            1 RES     
   16588 S2         818.7782  -873.3189   265.9730 S2            1 RES     
   16589 H3         812.7662  -874.1266   265.7930 H3            1 RES     
   16590 H3         818.2197  -875.9702   263.5784 H3            1 RES     
   16591 N4         823.0345  -874.0014   264.7321 N4            1 RES     
   16592 C1         821.7027  -873.7806   264.9236 C1            1 RES     
   16593 C1         820.7430  -874.7727   264.6153 C1            1 RES     
   16594 C1         821.2248  -875.9990   264.1229 C1            1 RES     
   16595 N4         820.4465  -877.0697   263.8239 N4            1 RES     
   16596 S2         821.5551  -878.2018   263.3533 S2            1 RES     
   16597 N4         823.0027  -877.4213   263.5041 N4            1 RES     
   16598 C1         822.6239  -876.2003   263.9525 C1            1 RES     
   16599 C1         823.5160  -875.1811   264.2573 C1            1 RES     
   16600 H5         821.3978  -872.8167   265.3075 H5            1 RES     
   16601 C0         814.9488  -874.4153   263.3103 C0            1 RES     
   16602 C0         815.3467  -874.8083   261.8440 C0            1 RES     
   16603 C0         814.9720  -873.6303   260.8718 C0            1 RES     
   16604 C0         813.4895  -873.3953   260.4561 C0            1 RES     
   16605 C0         812.4693  -872.9473   261.5233 C0            1 RES     
   16606 C0         812.8360  -871.6680   262.2999 C0            1 RES     
   16607 C0         812.9443  -870.4264   261.4049 C0            1 RES     
   16608 C0         813.2526  -869.1830   262.2362 C0            1 RES     
   16609 C0         814.7291  -876.1128   261.2642 C0            1 RES     
   16610 C0         815.4804  -877.3999   261.5921 C0            1 RES     
   16611 C0         814.7080  -878.6253   261.0700 C0            1 RES     
   16612 C0         815.4060  -879.9453   261.4335 C0            1 RES     
   16613 C0         814.4994  -881.1459   261.1111 C0            1 RES     
   16614 C0         815.0437  -882.4909   261.6270 C0            1 RES     
   16615 C0         815.0745  -882.5650   263.1667 C0            1 RES     
   16616 C0         815.5044  -883.9443   263.6560 C0            1 RES     
   16617 H6         813.8524  -874.4335   263.3851 H6            1 RES     
   16618 H6         815.2755  -873.3537   263.3693 H6            1 RES     
   16619 H6         816.4571  -874.8567   261.7898 H6            1 RES     
   16620 H6         815.5008  -873.8437   259.9155 H6            1 RES     
   16621 H6         815.4093  -872.6770   261.2388 H6            1 RES     
   16622 H6         813.0937  -874.3126   259.9716 H6            1 RES     
   16623 H6         813.5020  -872.6141   259.6666 H6            1 RES     
   16624 H6         812.2802  -873.7699   262.2326 H6            1 RES     
   16625 H6         811.4945  -872.7785   261.0157 H6            1 RES     
   16626 H6         813.7841  -871.8079   262.8511 H6            1 RES     
   16627 H6         812.0351  -871.4905   263.0509 H6            1 RES     
   16628 H6         813.7566  -870.5576   260.6603 H6            1 RES     
   16629 H6         811.9831  -870.2704   260.8688 H6            1 RES     
   16630 H6         812.4491  -869.0072   262.9831 H6            1 RES     
   16631 H6         813.3190  -868.2965   261.5710 H6            1 RES     
   16632 H6         814.2217  -869.3041   262.7659 H6            1 RES     
   16633 H6         814.7619  -876.0720   260.1520 H6            1 RES     
   16634 H6         813.6599  -876.1655   261.5667 H6            1 RES     
   16635 H6         816.5012  -877.3656   261.1528 H6            1 RES     
   16636 H6         815.5748  -877.4781   262.6666 H6            1 RES     
   16637 H6         813.7039  -878.6123   261.5502 H6            1 RES     
   16638 H6         814.5726  -878.5676   259.9679 H6            1 RES     
   16639 H6         816.3784  -880.0350   260.9031 H6            1 RES     
   16640 H6         815.6210  -879.9352   262.5091 H6            1 RES     
   16641 H6         813.4940  -880.9949   261.5633 H6            1 RES     
   16642 H6         814.3719  -881.2018   260.0075 H6            1 RES     
   16643 H6         816.0552  -882.6803   261.2084 H6            1 RES     
   16644 H6         814.3590  -883.2870   261.2613 H6            1 RES     
   16645 H6         814.0591  -882.3526   263.5691 H6            1 RES     
   16646 H6         815.7862  -881.8266   263.5806 H6            1 RES     
   16647 H6         815.5066  -883.9581   264.7651 H6            1 RES     
   16648 H6         814.7984  -884.7215   263.2928 H6            1 RES     
   16649 H6         816.5291  -884.1792   263.2937 H6            1 RES     
   16650 C0         814.9281  -876.4239   265.0763 C0            1 RES     
   16651 C0         815.7936  -877.7133   265.2691 C0            1 RES     
   16652 C0         814.9366  -878.9935   264.9751 C0            1 RES     
   16653 C0         813.8678  -879.4941   265.9779 C0            1 RES     
   16654 C0         812.5866  -878.6531   266.1507 C0            1 RES     
   16655 C0         811.7930  -878.3658   264.8586 C0            1 RES     
   16656 C0         811.3237  -879.6269   264.1217 C0            1 RES     
   16657 C0         810.5041  -879.2546   262.8877 C0            1 RES     
   16658 C0         816.4832  -877.9157   266.6503 C0            1 RES     
   16659 C0         817.6030  -876.9371   266.9620 C0            1 RES     
   16660 C0         818.3594  -877.2990   268.2408 C0            1 RES     
   16661 C0         819.5010  -876.2997   268.4599 C0            1 RES     
   16662 C0         820.2958  -876.6245   269.7305 C0            1 RES     
   16663 C0         821.4898  -875.6786   269.9443 C0            1 RES     
   16664 C0         821.0721  -874.2140   270.1519 C0            1 RES     
   16665 C0         822.2849  -873.3318   270.4276 C0            1 RES     
   16666 H6         814.2928  -876.3427   265.9753 H6            1 RES     
   16667 H6         814.2126  -876.6298   264.2649 H6            1 RES     
   16668 H6         816.5868  -877.7092   264.4960 H6            1 RES     
   16669 H6         815.6654  -879.8292   264.8959 H6            1 RES     
   16670 H6         814.4430  -878.9036   263.9927 H6            1 RES     
   16671 H6         814.3320  -879.6596   266.9713 H6            1 RES     
   16672 H6         813.5473  -880.4970   265.6224 H6            1 RES     
   16673 H6         812.8256  -877.6975   266.6472 H6            1 RES     
   16674 H6         811.9203  -879.2015   266.8516 H6            1 RES     
   16675 H6         812.3907  -877.7542   264.1603 H6            1 RES     
   16676 H6         810.9004  -877.7660   265.1428 H6            1 RES     
   16677 H6         812.1979  -880.2242   263.7876 H6            1 RES     
   16678 H6         810.6981  -880.2466   264.7996 H6            1 RES     
   16679 H6         809.6054  -878.6711   263.1822 H6            1 RES     
   16680 H6         810.1743  -880.1757   262.3638 H6            1 RES     
   16681 H6         811.1158  -878.6469   262.1861 H6            1 RES     
   16682 H6         816.9545  -878.9240   266.6396 H6            1 RES     
   16683 H6         815.7310  -877.8921   267.4683 H6            1 RES     
   16684 H6         818.3325  -876.9719   266.1285 H6            1 RES     
   16685 H6         817.1700  -875.9318   267.0919 H6            1 RES     
   16686 H6         817.6630  -877.2777   269.1068 H6            1 RES     
   16687 H6         818.7851  -878.3233   268.1444 H6            1 RES     
   16688 H6         820.1886  -876.3303   267.5851 H6            1 RES     
   16689 H6         819.0609  -875.2839   268.5365 H6            1 RES     
   16690 H6         819.6240  -876.5828   270.6154 H6            1 RES     
   16691 H6         820.6946  -877.6593   269.6444 H6            1 RES     
   16692 H6         822.1803  -875.7523   269.0751 H6            1 RES     
   16693 H6         822.0344  -876.0241   270.8502 H6            1 RES     
   16694 H6         820.3737  -874.1449   271.0138 H6            1 RES     
   16695 H6         820.5665  -873.8215   269.2453 H6            1 RES     
   16696 H6         821.9540  -872.2818   270.5734 H6            1 RES     
   16697 H6         822.8081  -873.6712   271.3467 H6            1 RES     
   16698 H6         822.9900  -873.3672   269.5698 H6            1 RES     
   16699 C0         828.3339  -876.3249   262.0904 C0            1 RES     
   16700 C1         827.1902  -875.9282   263.0326 C1            1 RES     
   16701 C1         827.6224  -875.5326   264.2505 C1            1 RES     
   16702 S2         826.3659  -875.0791   265.2559 S2            1 RES     
   16703 C1         825.1907  -875.3969   264.0607 C1            1 RES     
   16704 C1         825.8035  -875.8531   262.8880 C1            1 RES     
   16705 C1         829.0370  -875.6287   264.2706 C1            1 RES     
   16706 C1         829.4896  -876.1075   263.0748 C1            1 RES     
   16707 C1         830.8795  -876.2610   263.0483 C1            1 RES     
   16708 C1         831.4646  -875.8861   264.2850 C1            1 RES     
   16709 S2         830.2552  -875.3390   265.3586 S2            1 RES     
   16710 H3         825.2712  -876.1150   261.9842 H3            1 RES     
   16711 H3         831.4140  -876.6329   262.1871 H3            1 RES     
   16712 N4         834.6628  -875.2893   266.1909 N4            1 RES     
   16713 C1         833.3654  -875.2094   265.7789 C1            1 RES     
   16714 C1         832.8937  -875.9764   264.6883 C1            1 RES     
   16715 C1         833.8151  -876.8362   264.0636 C1            1 RES     
   16716 N4         833.5166  -877.6734   263.0382 N4            1 RES     
   16717 S2         834.9540  -878.4447   262.7716 S2            1 RES     
   16718 N4         835.9691  -877.7839   263.8942 N4            1 RES     
   16719 C1         835.1576  -876.9067   264.5324 C1            1 RES     
   16720 C1         835.5654  -876.1154   265.5979 C1            1 RES     
   16721 H5         832.7069  -874.5304   266.3033 H5            1 RES     
   16722 C0         828.3007  -875.1999   260.9863 C0            1 RES     
   16723 C0         829.3643  -874.8782   259.8781 C0            1 RES     
   16724 C0         829.1697  -873.3968   259.3873 C0            1 RES     
   16725 C0         827.9951  -873.0331   258.4313 C0            1 RES     
   16726 C0         826.5442  -873.1395   258.9452 C0            1 RES     
   16727 C0         826.2308  -872.3417   260.2256 C0            1 RES     
   16728 C0         826.4104  -870.8275   260.0547 C0            1 RES     
   16729 C0         826.0312  -870.0877   261.3357 C0            1 RES     
   16730 C0         829.3809  -875.7933   258.6204 C0            1 RES     
   16731 C0         830.2040  -877.0719   258.7468 C0            1 RES     
   16732 C0         830.0421  -877.9461   257.4895 C0            1 RES     
   16733 C0         830.8113  -879.2715   257.6052 C0            1 RES     
   16734 C0         830.4415  -880.2169   256.4490 C0            1 RES     
   16735 C0         831.0177  -881.6370   256.6000 C0            1 RES     
   16736 C0         830.4085  -882.3986   257.7941 C0            1 RES     
   16737 C0         830.9042  -883.8399   257.8553 C0            1 RES     
   16738 H6         827.3154  -875.2750   260.5051 H6            1 RES     
   16739 H6         828.3087  -874.2726   261.6005 H6            1 RES     
   16740 H6         830.3689  -874.8715   260.3566 H6            1 RES     
   16741 H6         830.0883  -873.1425   258.8120 H6            1 RES     
   16742 H6         829.1693  -872.7027   260.2551 H6            1 RES     
   16743 H6         828.0731  -873.6410   257.5053 H6            1 RES     
   16744 H6         828.1555  -871.9793   258.1191 H6            1 RES     
   16745 H6         826.2734  -874.1980   259.0927 H6            1 RES     
   16746 H6         825.8680  -872.7818   258.1383 H6            1 RES     
   16747 H6         826.8584  -872.6940   261.0648 H6            1 RES     
   16748 H6         825.1701  -872.5413   260.4938 H6            1 RES     
   16749 H6         827.4673  -870.5892   259.8148 H6            1 RES     
   16750 H6         825.7611  -870.4679   259.2271 H6            1 RES     
   16751 H6         824.9703  -870.2871   261.5989 H6            1 RES     
   16752 H6         826.1609  -868.9949   261.1879 H6            1 RES     
   16753 H6         826.6817  -870.4130   262.1756 H6            1 RES     
   16754 H6         829.8721  -875.2532   257.7797 H6            1 RES     
   16755 H6         828.3309  -876.0015   258.3177 H6            1 RES     
   16756 H6         831.2741  -876.8194   258.9115 H6            1 RES     
   16757 H6         829.8488  -877.6254   259.6053 H6            1 RES     
   16758 H6         828.9579  -878.1746   257.3832 H6            1 RES     
   16759 H6         830.3780  -877.3994   256.5815 H6            1 RES     
   16760 H6         831.9074  -879.0894   257.6272 H6            1 RES     
   16761 H6         830.5401  -879.7440   258.5573 H6            1 RES     
   16762 H6         829.3352  -880.3097   256.3733 H6            1 RES     
   16763 H6         830.8120  -879.7706   255.4999 H6            1 RES     
   16764 H6         832.1242  -881.5935   256.6903 H6            1 RES     
   16765 H6         830.7640  -882.1971   255.6735 H6            1 RES     
   16766 H6         829.3001  -882.4143   257.6981 H6            1 RES     
   16767 H6         830.6791  -881.9112   258.7492 H6            1 RES     
   16768 H6         830.4386  -884.3536   258.7210 H6            1 RES     
   16769 H6         830.6264  -884.3847   256.9277 H6            1 RES     
   16770 H6         832.0091  -883.8621   257.9786 H6            1 RES     
   16771 C0         828.0103  -877.7899   261.5874 C0            1 RES     
   16772 C0         828.9911  -879.0070   261.6624 C0            1 RES     
   16773 C0         828.6714  -880.0350   260.5219 C0            1 RES     
   16774 C0         827.4310  -880.9593   260.5961 C0            1 RES     
   16775 C0         826.0383  -880.3168   260.4331 C0            1 RES     
   16776 C0         825.8253  -879.4944   259.1446 C0            1 RES     
   16777 C0         826.0279  -880.2964   257.8524 C0            1 RES     
   16778 C0         825.7472  -879.4251   256.6297 C0            1 RES     
   16779 C0         829.0552  -879.7963   263.0030 C0            1 RES     
   16780 C0         829.6686  -879.0391   264.1688 C0            1 RES     
   16781 C0         829.8726  -879.9228   265.4001 C0            1 RES     
   16782 C0         830.5393  -879.1048   266.5119 C0            1 RES     
   16783 C0         830.7715  -879.9508   267.7696 C0            1 RES     
   16784 C0         831.4990  -879.1768   268.8822 C0            1 RES     
   16785 C0         830.6978  -877.9744   269.4064 C0            1 RES     
   16786 C0         831.4307  -877.2848   270.5521 C0            1 RES     
   16787 H6         827.0543  -878.1386   262.0151 H6            1 RES     
   16788 H6         827.7786  -877.6229   260.5238 H6            1 RES     
   16789 H6         830.0112  -878.6356   261.4431 H6            1 RES     
   16790 H6         829.5404  -880.7278   260.4919 H6            1 RES     
   16791 H6         828.6359  -879.5219   259.5461 H6            1 RES     
   16792 H6         827.4540  -881.5455   261.5372 H6            1 RES     
   16793 H6         827.5403  -881.7000   259.7750 H6            1 RES     
   16794 H6         825.8092  -879.6838   261.3069 H6            1 RES     
   16795 H6         825.2890  -881.1379   260.4477 H6            1 RES     
   16796 H6         826.4985  -878.6197   259.1230 H6            1 RES     
   16797 H6         824.7822  -879.1086   259.1648 H6            1 RES     
   16798 H6         827.0754  -880.6579   257.7852 H6            1 RES     
   16799 H6         825.3408  -881.1697   257.8414 H6            1 RES     
   16800 H6         824.6984  -879.0586   256.6487 H6            1 RES     
   16801 H6         825.9005  -880.0170   255.7034 H6            1 RES     
   16802 H6         826.4351  -878.5521   256.6109 H6            1 RES     
   16803 H6         829.7112  -880.6797   262.8350 H6            1 RES     
   16804 H6         828.0451  -880.1623   263.2881 H6            1 RES     
   16805 H6         830.6680  -878.6765   263.8562 H6            1 RES     
   16806 H6         828.9962  -878.2114   264.4476 H6            1 RES     
   16807 H6         828.8914  -880.3113   265.7492 H6            1 RES     
   16808 H6         830.5288  -880.7828   265.1366 H6            1 RES     
   16809 H6         831.5187  -878.7208   266.1481 H6            1 RES     
   16810 H6         829.8809  -878.2438   266.7495 H6            1 RES     
   16811 H6         829.7989  -880.3291   268.1533 H6            1 RES     
   16812 H6         831.4024  -880.8254   267.4971 H6            1 RES     
   16813 H6         832.4888  -878.8338   268.5077 H6            1 RES     
   16814 H6         831.6722  -879.8822   269.7243 H6            1 RES     
   16815 H6         829.7053  -878.3185   269.7697 H6            1 RES     
   16816 H6         830.5477  -877.2260   268.6008 H6            1 RES     
   16817 H6         830.8301  -876.4221   270.9103 H6            1 RES     
   16818 H6         831.5782  -877.9911   271.3965 H6            1 RES     
   16819 H6         832.4193  -876.9123   270.2083 H6            1 RES     
   16820 C0         840.9664  -876.0454   265.7990 C0            1 RES     
   16821 C1         839.4728  -876.1438   266.1350 C1            1 RES     
   16822 C1         839.2394  -876.3319   267.4529 C1            1 RES     
   16823 S2         837.6070  -876.4110   267.8056 S2            1 RES     
   16824 C1         837.1632  -876.1806   266.1745 C1            1 RES     
   16825 C1         838.3049  -876.0431   265.3766 C1            1 RES     
   16826 C1         840.4895  -876.3945   268.1191 C1            1 RES     
   16827 C1         841.5064  -876.2703   267.2166 C1            1 RES     
   16828 C1         842.7685  -876.3634   267.8122 C1            1 RES     
   16829 C1         842.6655  -876.5751   269.2111 C1            1 RES     
   16830 S2         841.0231  -876.6003   269.6762 S2            1 RES     
   16831 H3         838.2859  -875.8801   264.3080 H3            1 RES     
   16832 H3         843.6895  -876.2934   267.2532 H3            1 RES     
   16833 N4         844.5085  -876.8317   272.4905 N4            1 RES     
   16834 C1         843.5310  -876.6038   271.5675 C1            1 RES     
   16835 C1         843.7642  -876.8053   270.1873 C1            1 RES     
   16836 C1         845.0388  -877.2684   269.8137 C1            1 RES     
   16837 N4         845.4124  -877.5580   268.5417 N4            1 RES     
   16838 S2         846.9646  -878.0923   268.7339 S2            1 RES     
   16839 N4         847.2178  -877.9876   270.3625 N4            1 RES     
   16840 C1         846.0294  -877.5126   270.8068 C1            1 RES     
   16841 C1         845.7452  -877.2795   272.1456 C1            1 RES     
   16842 H5         842.5718  -876.2506   271.9205 H5            1 RES     
   16843 C0         841.1387  -874.5438   265.3503 C0            1 RES     
   16844 C0         842.4619  -873.7315   265.1220 C0            1 RES     
   16845 C0         842.1482  -872.1932   265.2133 C0            1 RES     
   16846 C0         841.4414  -871.4634   264.0327 C0            1 RES     
   16847 C0         839.9810  -871.8238   263.6896 C0            1 RES     
   16848 C0         838.9740  -871.6986   264.8491 C0            1 RES     
   16849 C0         838.8435  -870.2671   265.3858 C0            1 RES     
   16850 C0         837.7925  -870.1954   266.4915 C0            1 RES     
   16851 C0         843.2279  -873.9783   263.7909 C0            1 RES     
   16852 C0         844.1972  -875.1568   263.7973 C0            1 RES     
   16853 C0         844.7974  -875.3714   262.3956 C0            1 RES     
   16854 C0         845.7353  -876.5879   262.3494 C0            1 RES     
   16855 C0         846.1278  -876.9164   260.8984 C0            1 RES     
   16856 C0         846.9046  -878.2377   260.7496 C0            1 RES     
   16857 C0         846.0464  -879.4707   261.0967 C0            1 RES     
   16858 C0         846.7961  -880.7722   260.8302 C0            1 RES     
   16859 H6         840.5001  -874.4157   264.4650 H6            1 RES     
   16860 H6         840.6645  -873.9945   266.1934 H6            1 RES     
   16861 H6         843.1348  -873.9190   265.9882 H6            1 RES     
   16862 H6         843.1346  -871.6854   265.3065 H6            1 RES     
   16863 H6         841.6145  -871.9667   266.1613 H6            1 RES     
   16864 H6         842.0471  -871.5849   263.1100 H6            1 RES     
   16865 H6         841.4636  -870.3790   264.2719 H6            1 RES     
   16866 H6         839.9334  -872.8404   263.2658 H6            1 RES     
   16867 H6         839.6477  -871.1554   262.8659 H6            1 RES     
   16868 H6         839.2497  -872.3779   265.6766 H6            1 RES     
   16869 H6         837.9808  -872.0221   264.4670 H6            1 RES     
   16870 H6         839.8121  -869.9221   265.8032 H6            1 RES     
   16871 H6         838.5422  -869.5870   264.5597 H6            1 RES     
   16872 H6         836.8014  -870.5164   266.1054 H6            1 RES     
   16873 H6         837.7089  -869.1513   266.8597 H6            1 RES     
   16874 H6         838.0816  -870.8505   267.3411 H6            1 RES     
   16875 H6         843.8856  -873.1054   263.5783 H6            1 RES     
   16876 H6         842.4885  -874.0510   262.9629 H6            1 RES     
   16877 H6         845.0022  -874.9817   264.5439 H6            1 RES     
   16878 H6         843.6540  -876.0466   264.0848 H6            1 RES     
   16879 H6         843.9496  -875.5518   261.6971 H6            1 RES     
   16880 H6         845.3464  -874.4657   262.0573 H6            1 RES     
   16881 H6         846.6403  -876.4105   262.9696 H6            1 RES     
   16882 H6         845.2065  -877.4459   262.7823 H6            1 RES     
   16883 H6         845.2155  -876.9902   260.2656 H6            1 RES     
   16884 H6         846.7483  -876.0809   260.5060 H6            1 RES     
   16885 H6         847.8226  -878.2145   261.3750 H6            1 RES     
   16886 H6         847.2094  -878.3240   259.6837 H6            1 RES     
   16887 H6         845.1226  -879.4666   260.4766 H6            1 RES     
   16888 H6         845.7615  -879.4618   262.1652 H6            1 RES     
   16889 H6         846.1439  -881.6323   261.0850 H6            1 RES     
   16890 H6         847.0767  -880.8448   259.7576 H6            1 RES     
   16891 H6         847.7143  -880.8225   261.4553 H6            1 RES     
   16892 C0         841.2454  -877.1315   264.6826 C0            1 RES     
   16893 C0         842.3597  -878.2282   264.7491 C0            1 RES     
   16894 C0         842.8090  -878.6364   263.3029 C0            1 RES     
   16895 C0         841.9134  -879.5224   262.4021 C0            1 RES     
   16896 C0         840.6133  -878.9077   261.8449 C0            1 RES     
   16897 C0         840.7787  -877.5966   261.0477 C0            1 RES     
   16898 C0         841.6949  -877.7227   259.8235 C0            1 RES     
   16899 C0         841.7618  -876.3993   259.0637 C0            1 RES     
   16900 C0         842.0342  -879.5367   265.5276 C0            1 RES     
   16901 C0         841.8951  -879.3748   267.0320 C0            1 RES     
   16902 C0         841.7606  -880.7149   267.7564 C0            1 RES     
   16903 C0         841.6767  -880.4731   269.2678 C0            1 RES     
   16904 C0         841.5466  -881.7908   270.0411 C0            1 RES     
   16905 C0         841.5259  -881.5872   271.5657 C0            1 RES     
   16906 C0         840.3176  -880.7704   272.0508 C0            1 RES     
   16907 C0         840.3075  -880.6569   273.5715 C0            1 RES     
   16908 H6         840.3114  -877.6576   264.4191 H6            1 RES     
   16909 H6         841.4548  -876.5070   263.8000 H6            1 RES     
   16910 H6         843.2558  -877.7747   265.2159 H6            1 RES     
   16911 H6         843.7455  -879.2207   263.4348 H6            1 RES     
   16912 H6         843.0703  -877.7385   262.7180 H6            1 RES     
   16913 H6         841.6733  -880.4701   262.9255 H6            1 RES     
   16914 H6         842.5336  -879.8091   261.5257 H6            1 RES     
   16915 H6         839.8916  -878.7436   262.6629 H6            1 RES     
   16916 H6         840.1476  -879.6635   261.1758 H6            1 RES     
   16917 H6         841.1681  -876.7915   261.6950 H6            1 RES     
   16918 H6         839.7671  -877.2855   260.7053 H6            1 RES     
   16919 H6         842.7246  -877.9907   260.1405 H6            1 RES     
   16920 H6         841.3070  -878.5121   259.1443 H6            1 RES     
   16921 H6         840.7502  -876.1051   258.7101 H6            1 RES     
   16922 H6         842.4296  -876.5048   258.1836 H6            1 RES     
   16923 H6         842.1632  -875.5967   259.7197 H6            1 RES     
   16924 H6         842.8885  -880.2335   265.3743 H6            1 RES     
   16925 H6         841.1177  -880.0151   265.1193 H6            1 RES     
   16926 H6         842.8148  -878.8873   267.4122 H6            1 RES     
   16927 H6         840.9926  -878.7782   267.2429 H6            1 RES     
   16928 H6         840.8476  -881.2415   267.4036 H6            1 RES     
   16929 H6         842.6502  -881.3476   267.5373 H6            1 RES     
   16930 H6         842.5955  -879.9437   269.6064 H6            1 RES     
   16931 H6         840.7960  -879.8279   269.4660 H6            1 RES     
   16932 H6         840.6240  -882.3238   269.7236 H6            1 RES     
   16933 H6         842.4214  -882.4330   269.7970 H6            1 RES     
   16934 H6         842.4681  -881.0893   271.8852 H6            1 RES     
   16935 H6         841.4874  -882.5929   272.0386 H6            1 RES     
   16936 H6         839.3780  -881.2641   271.7208 H6            1 RES     
   16937 H6         840.3506  -879.7423   271.6344 H6            1 RES     
   16938 H6         839.4258  -880.0633   273.8930 H6            1 RES     
   16939 H6         840.2458  -881.6651   274.0334 H6            1 RES     
   16940 H6         841.2287  -880.1468   273.9258 H6            1 RES     
   16941 C0         850.3618  -877.1848   274.9554 C0            1 RES     
   16942 C1         848.9376  -877.4586   274.4551 C1            1 RES     
   16943 C1         848.2189  -878.2276   275.3029 C1            1 RES     
   16944 S2         846.6618  -878.4948   274.7557 S2            1 RES     
   16945 C1         846.9119  -877.5620   273.3494 C1            1 RES     
   16946 C1         848.2154  -877.0525   273.3314 C1            1 RES     
   16947 C1         849.0431  -878.5561   276.4090 C1            1 RES     
   16948 C1         850.2852  -878.0140   276.2432 C1            1 RES     
   16949 C1         851.1570  -878.3375   277.2878 C1            1 RES     
   16950 C1         850.5235  -879.1612   278.2535 C1            1 RES     
   16951 S2         848.8971  -879.4316   277.8104 S2            1 RES     
   16952 H3         848.6136  -876.4244   272.5468 H3            1 RES     
   16953 H3         852.1823  -878.0013   277.3239 H3            1 RES     
   16954 N4         850.8023  -880.8309   281.6227 N4            1 RES     
   16955 C1         850.2860  -880.2327   280.5114 C1            1 RES     
   16956 C1         851.1236  -879.7828   279.4645 C1            1 RES     
   16957 C1         852.5058  -879.9978   279.6125 C1            1 RES     
   16958 N4         853.4411  -879.6722   278.6847 N4            1 RES     
   16959 S2         854.8426  -880.2001   279.3840 S2            1 RES     
   16960 N4         854.3475  -880.8375   280.8249 N4            1 RES     
   16961 C1         853.0077  -880.6419   280.7788 C1            1 RES     
   16962 C1         852.1356  -881.0460   281.7806 C1            1 RES     
   16963 H5         849.2142  -880.0992   280.4582 H5            1 RES     
   16964 C0         850.3459  -875.6391   275.2658 C0            1 RES     
   16965 C0         851.4058  -874.7814   276.0429 C0            1 RES     
   16966 C0         850.7272  -873.4582   276.5549 C0            1 RES     
   16967 C0         850.4376  -872.2898   275.5665 C0            1 RES     
   16968 C0         849.3930  -872.4893   274.4488 C0            1 RES     
   16969 C0         847.9912  -872.9250   274.9171 C0            1 RES     
   16970 C0         847.3091  -871.8943   275.8263 C0            1 RES     
   16971 C0         845.9045  -872.3544   276.2104 C0            1 RES     
   16972 C0         852.6988  -874.3821   275.2760 C0            1 RES     
   16973 C0         853.8230  -875.4136   275.2980 C0            1 RES     
   16974 C0         854.9935  -874.9574   274.4075 C0            1 RES     
   16975 C0         856.1216  -875.9997   274.3583 C0            1 RES     
   16976 C0         857.1586  -875.6276   273.2843 C0            1 RES     
   16977 C0         858.2145  -876.7207   273.0360 C0            1 RES     
   16978 C0         857.6105  -877.9966   272.4159 C0            1 RES     
   16979 C0         858.6879  -879.0193   272.0698 C0            1 RES     
   16980 H6         850.1333  -875.1391   274.3104 H6            1 RES     
   16981 H6         849.4432  -875.5414   275.9084 H6            1 RES     
   16982 H6         851.6705  -875.3249   276.9771 H6            1 RES     
   16983 H6         851.4288  -873.0251   277.3031 H6            1 RES     
   16984 H6         849.8047  -873.6972   277.1263 H6            1 RES     
   16985 H6         851.3874  -871.9671   275.0904 H6            1 RES     
   16986 H6         850.0977  -871.4306   276.1829 H6            1 RES     
   16987 H6         849.7730  -873.2052   273.7014 H6            1 RES     
   16988 H6         849.2927  -871.5285   273.8982 H6            1 RES     
   16989 H6         848.0422  -873.8986   275.4384 H6            1 RES     
   16990 H6         847.3626  -873.0633   274.0100 H6            1 RES     
   16991 H6         847.8961  -871.7533   276.7574 H6            1 RES     
   16992 H6         847.2349  -870.9213   275.2939 H6            1 RES     
   16993 H6         845.2787  -872.4886   275.3022 H6            1 RES     
   16994 H6         845.4269  -871.5918   276.8609 H6            1 RES     
   16995 H6         845.9520  -873.3160   276.7649 H6            1 RES     
   16996 H6         853.1561  -873.4925   275.7652 H6            1 RES     
   16997 H6         852.4216  -874.0894   274.2391 H6            1 RES     
   16998 H6         854.1677  -875.5767   276.3423 H6            1 RES     
   16999 H6         853.4379  -876.3494   274.9166 H6            1 RES     
   17000 H6         854.5922  -874.8217   273.3781 H6            1 RES     
   17001 H6         855.4014  -873.9843   274.7579 H6            1 RES     
   17002 H6         856.6068  -876.1013   275.3529 H6            1 RES     
   17003 H6         855.6797  -876.9726   274.1102 H6            1 RES     
   17004 H6         856.6478  -875.4280   272.3161 H6            1 RES     
   17005 H6         857.6687  -874.6909   273.6001 H6            1 RES     
   17006 H6         858.7455  -876.9618   273.9816 H6            1 RES     
   17007 H6         858.9538  -876.3086   272.3148 H6            1 RES     
   17008 H6         857.0656  -877.7336   271.4821 H6            1 RES     
   17009 H6         856.9058  -878.4783   273.1190 H6            1 RES     
   17010 H6         858.2143  -879.9164   271.6211 H6            1 RES     
   17011 H6         859.4056  -878.5927   271.3368 H6            1 RES     
   17012 H6         859.2366  -879.3260   272.9869 H6            1 RES     
   17013 C0         851.3376  -877.6420   273.7967 C0            1 RES     
   17014 C0         852.5436  -878.6245   273.9678 C0            1 RES     
   17015 C0         853.6471  -878.3242   272.8945 C0            1 RES     
   17016 C0         853.4577  -878.7273   271.4112 C0            1 RES     
   17017 C0         852.4123  -877.9569   270.5792 C0            1 RES     
   17018 C0         852.5837  -876.4236   270.5395 C0            1 RES     
   17019 C0         853.9338  -875.9616   269.9760 C0            1 RES     
   17020 C0         854.0002  -874.4365   269.9225 C0            1 RES     
   17021 C0         852.2397  -880.1507   273.9161 C0            1 RES     
   17022 C0         851.4410  -880.6897   275.0909 C0            1 RES     
   17023 C0         851.3345  -882.2152   275.0773 C0            1 RES     
   17024 C0         850.5620  -882.6850   276.3152 C0            1 RES     
   17025 C0         850.4332  -884.2126   276.3508 C0            1 RES     
   17026 C0         849.7195  -884.7209   277.6150 C0            1 RES     
   17027 C0         848.2638  -884.2396   277.7231 C0            1 RES     
   17028 C0         847.5824  -884.8263   278.9547 C0            1 RES     
   17029 H6         850.7586  -878.0133   272.9334 H6            1 RES     
   17030 H6         851.7468  -876.6813   273.4469 H6            1 RES     
   17031 H6         853.0205  -878.4107   274.9443 H6            1 RES     
   17032 H6         854.5482  -878.8835   273.2280 H6            1 RES     
   17033 H6         853.9103  -877.2532   272.9087 H6            1 RES     
   17034 H6         853.2510  -879.8145   271.3399 H6            1 RES     
   17035 H6         854.4398  -878.5724   270.9147 H6            1 RES     
   17036 H6         851.3955  -878.1970   270.9333 H6            1 RES     
   17037 H6         852.4692  -878.3388   269.5367 H6            1 RES     
   17038 H6         852.4577  -875.9897   271.5468 H6            1 RES     
   17039 H6         851.7714  -876.0145   269.8991 H6            1 RES     
   17040 H6         854.7625  -876.3204   270.6218 H6            1 RES     
   17041 H6         854.0708  -876.3671   268.9505 H6            1 RES     
   17042 H6         853.1967  -874.0374   269.2669 H6            1 RES     
   17043 H6         854.9824  -874.1173   269.5160 H6            1 RES     
   17044 H6         853.8817  -874.0084   270.9414 H6            1 RES     
   17045 H6         853.2168  -880.6831   273.9425 H6            1 RES     
   17046 H6         851.7260  -880.4135   272.9660 H6            1 RES     
   17047 H6         851.9672  -880.4060   276.0240 H6            1 RES     
   17048 H6         850.4212  -880.2738   275.0475 H6            1 RES     
   17049 H6         850.8117  -882.5461   274.1539 H6            1 RES     
   17050 H6         852.3551  -882.6600   275.0940 H6            1 RES     
   17051 H6         851.0952  -882.3452   277.2313 H6            1 RES     
   17052 H6         849.5551  -882.2194   276.2913 H6            1 RES     
   17053 H6         849.8887  -884.5653   275.4479 H6            1 RES     
   17054 H6         851.4538  -884.6548   276.3369 H6            1 RES     
   17055 H6         850.2887  -884.4000   278.5154 H6            1 RES     
   17056 H6         849.7241  -885.8324   277.5797 H6            1 RES     
   17057 H6         847.7004  -884.5520   276.8173 H6            1 RES     
   17058 H6         848.2250  -883.1339   277.8086 H6            1 RES     
   17059 H6         846.5344  -884.4626   279.0071 H6            1 RES     
   17060 H6         847.5721  -885.9355   278.8985 H6            1 RES     
   17061 H6         848.1155  -884.5106   279.8769 H6            1 RES     
   17062 C0         854.9535  -882.1267   286.2649 C0            1 RES     
   17063 C1         853.9867  -882.1772   285.0748 C1            1 RES     
   17064 C1         853.1817  -883.2625   285.0941 C1            1 RES     
   17065 S2         852.1171  -883.2889   283.8051 S2            1 RES     
   17066 C1         852.7110  -881.8156   283.1830 C1            1 RES     
   17067 C1         853.7363  -881.3234   283.9988 C1            1 RES     
   17068 C1         853.5102  -884.0368   286.2357 C1            1 RES     
   17069 C1         854.5369  -883.4502   286.9182 C1            1 RES     
   17070 C1         854.9320  -884.1911   288.0367 C1            1 RES     
   17071 C1         854.1642  -885.3766   288.1688 C1            1 RES     
   17072 S2         852.9958  -885.4544   286.9266 S2            1 RES     
   17073 H3         854.2681  -880.3995   283.8190 H3            1 RES     
   17074 H3         855.7325  -883.8842   288.6929 H3            1 RES     
   17075 N4         853.3744  -888.3825   290.3037 N4            1 RES     
   17076 C1         853.2528  -887.3584   289.4116 C1            1 RES     
   17077 C1         854.3222  -886.4648   289.1708 C1            1 RES     
   17078 C1         855.5180  -886.6918   289.8759 C1            1 RES     
   17079 N4         856.6516  -885.9606   289.7281 N4            1 RES     
   17080 S2         857.7046  -886.7156   290.7544 S2            1 RES     
   17081 N4         856.8118  -887.9467   291.3984 N4            1 RES     
   17082 C1         855.6144  -887.7821   290.7864 C1            1 RES     
   17083 C1         854.5232  -888.6153   290.9927 C1            1 RES     
   17084 H5         852.3073  -887.2398   288.9003 H5            1 RES     
   17085 C0         854.4403  -880.8893   287.0963 C0            1 RES     
   17086 C0         854.8326  -880.4517   288.5515 C0            1 RES     
   17087 C0         853.7079  -879.5190   289.1332 C0            1 RES     
   17088 C0         853.5968  -878.0368   288.6675 C0            1 RES     
   17089 C0         853.2061  -877.7332   287.2061 C0            1 RES     
   17090 C0         851.8862  -878.3654   286.7242 C0            1 RES     
   17091 C0         850.6593  -877.8731   287.5031 C0            1 RES     
   17092 C0         849.3784  -878.4891   286.9444 C0            1 RES     
   17093 C0         856.1929  -879.7193   288.7323 C0            1 RES     
   17094 C0         857.4109  -880.6233   288.8984 C0            1 RES     
   17095 C0         858.7031  -879.7872   288.9446 C0            1 RES     
   17096 C0         859.9573  -880.6686   289.0526 C0            1 RES     
   17097 C0         861.2308  -879.8275   288.8576 C0            1 RES     
   17098 C0         862.5186  -880.6657   288.7548 C0            1 RES     
   17099 C0         862.5573  -881.5367   287.4832 C0            1 RES     
   17100 C0         863.8887  -882.2675   287.3411 C0            1 RES     
   17101 H6         854.5415  -880.0163   286.4363 H6            1 RES     
   17102 H6         853.3557  -881.1133   287.1992 H6            1 RES     
   17103 H6         854.7964  -881.3527   289.2035 H6            1 RES     
   17104 H6         853.9002  -879.4551   290.2280 H6            1 RES     
   17105 H6         852.7161  -880.0115   289.0410 H6            1 RES     
   17106 H6         854.5520  -877.5121   288.8800 H6            1 RES     
   17107 H6         852.8339  -877.5572   289.3169 H6            1 RES     
   17108 H6         854.0256  -878.0248   286.5287 H6            1 RES     
   17109 H6         853.1239  -876.6298   287.0958 H6            1 RES     
   17110 H6         851.9408  -879.4680   286.7828 H6            1 RES     
   17111 H6         851.7550  -878.0929   285.6540 H6            1 RES     
   17112 H6         850.7433  -878.1550   288.5731 H6            1 RES     
   17113 H6         850.5892  -876.7665   287.4245 H6            1 RES     
   17114 H6         849.2492  -878.2124   285.8762 H6            1 RES     
   17115 H6         848.5038  -878.1142   287.5165 H6            1 RES     
   17116 H6         849.4131  -879.5962   287.0319 H6            1 RES     
   17117 H6         856.1733  -879.1370   289.6811 H6            1 RES     
   17118 H6         856.3214  -878.9958   287.8971 H6            1 RES     
   17119 H6         857.3074  -881.2332   289.8223 H6            1 RES     
   17120 H6         857.4588  -881.2941   288.0514 H6            1 RES     
   17121 H6         858.7573  -879.2099   287.9944 H6            1 RES     
   17122 H6         858.6794  -879.0687   289.7928 H6            1 RES     
   17123 H6         859.9830  -881.1979   290.0295 H6            1 RES     
   17124 H6         859.9078  -881.4339   288.2683 H6            1 RES     
   17125 H6         861.1482  -879.2234   287.9268 H6            1 RES     
   17126 H6         861.3198  -879.1234   289.7142 H6            1 RES     
   17127 H6         862.6383  -881.2962   289.6616 H6            1 RES     
   17128 H6         863.3727  -879.9553   288.7072 H6            1 RES     
   17129 H6         862.4153  -880.8924   286.5872 H6            1 RES     
   17130 H6         861.7577  -882.3003   287.5065 H6            1 RES     
   17131 H6         863.8787  -882.8752   286.4133 H6            1 RES     
   17132 H6         864.7255  -881.5393   287.2794 H6            1 RES     
   17133 H6         864.0516  -882.9431   288.2091 H6            1 RES     
   17134 C0         856.4066  -881.9882   285.6541 C0            1 RES     
   17135 C0         857.6210  -882.9140   285.9958 C0            1 RES     
   17136 C0         858.9694  -882.1357   285.8060 C0            1 RES     
   17137 C0         859.5295  -881.8287   284.3952 C0            1 RES     
   17138 C0         858.7863  -880.7894   283.5313 C0            1 RES     
   17139 C0         858.5885  -879.4005   284.1743 C0            1 RES     
   17140 C0         859.8974  -878.7028   284.5666 C0            1 RES     
   17141 C0         859.6157  -877.3173   285.1446 C0            1 RES     
   17142 C0         857.7403  -884.2583   285.2194 C0            1 RES     
   17143 C0         856.6719  -885.2884   285.5450 C0            1 RES     
   17144 C0         856.9472  -886.6449   284.8947 C0            1 RES     
   17145 C0         855.8584  -887.6412   285.3092 C0            1 RES     
   17146 C0         856.0939  -889.0222   284.6859 C0            1 RES     
   17147 C0         855.0544  -890.0635   285.1347 C0            1 RES     
   17148 C0         853.6224  -889.7164   284.6975 C0            1 RES     
   17149 C0         852.6435  -890.8120   285.1063 C0            1 RES     
   17150 H6         856.3555  -881.9420   284.5524 H6            1 RES     
   17151 H6         856.6843  -880.9641   285.9488 H6            1 RES     
   17152 H6         857.5723  -883.1541   287.0760 H6            1 RES     
   17153 H6         859.7480  -882.7646   286.2900 H6            1 RES     
   17154 H6         858.9388  -881.1812   286.3579 H6            1 RES     
   17155 H6         859.6376  -882.7705   283.8198 H6            1 RES     
   17156 H6         860.5615  -881.4437   284.5426 H6            1 RES     
   17157 H6         857.8048  -881.1869   283.2224 H6            1 RES     
   17158 H6         859.3694  -880.6573   282.5940 H6            1 RES     
   17159 H6         857.9476  -879.4719   285.0704 H6            1 RES     
   17160 H6         858.0534  -878.7647   283.4349 H6            1 RES     
   17161 H6         860.4325  -879.2959   285.3376 H6            1 RES     
   17162 H6         860.5489  -878.5976   283.6725 H6            1 RES     
   17163 H6         859.0972  -876.6834   284.3936 H6            1 RES     
   17164 H6         860.5705  -876.8265   285.4262 H6            1 RES     
   17165 H6         858.9778  -877.3991   286.0512 H6            1 RES     
   17166 H6         858.7093  -884.7226   285.5098 H6            1 RES     
   17167 H6         857.7573  -884.0747   284.1232 H6            1 RES     
   17168 H6         856.6680  -885.4454   286.6420 H6            1 RES     
   17169 H6         855.7004  -884.9212   285.1756 H6            1 RES     
   17170 H6         856.9611  -886.5343   283.7888 H6            1 RES     
   17171 H6         857.9374  -887.0257   285.2324 H6            1 RES     
   17172 H6         855.8545  -887.7403   286.4179 H6            1 RES     
   17173 H6         854.8782  -887.2382   284.9805 H6            1 RES     
   17174 H6         856.0853  -888.9409   283.5771 H6            1 RES     
   17175 H6         857.0965  -889.3870   285.0006 H6            1 RES     
   17176 H6         855.0931  -890.1715   286.2413 H6            1 RES     
   17177 H6         855.3376  -891.0384   284.6809 H6            1 RES     
   17178 H6         853.5889  -889.5983   283.5927 H6            1 RES     
   17179 H6         853.2893  -888.7701   285.1718 H6            1 RES     
   17180 H6         851.6194  -890.5353   284.7782 H6            1 RES     
   17181 H6         852.9221  -891.7758   284.6297 H6            1 RES     
   17182 H6         852.6428  -890.9354   286.2104 H6            1 RES     
   17183 C0         855.3381  -891.5423   295.4632 C0            1 RES     
   17184 C1         855.0107  -891.0712   294.0404 C1            1 RES     
   17185 C1         854.5572  -892.0661   293.2460 C1            1 RES     
   17186 S2         854.1807  -891.5311   291.7073 S2            1 RES     
   17187 C1         854.6134  -889.9225   292.0758 C1            1 RES     
   17188 C1         855.0458  -889.8292   293.4037 C1            1 RES     
   17189 C1         854.5436  -893.2652   294.0028 C1            1 RES     
   17190 C1         855.0113  -893.0273   295.2631 C1            1 RES     
   17191 C1         855.0577  -894.1847   296.0470 C1            1 RES     
   17192 C1         854.6127  -895.3191   295.3206 C1            1 RES     
   17193 S2         854.1378  -894.8534   293.7483 S2            1 RES     
   17194 H3         855.3672  -888.9119   293.8771 H3            1 RES     
   17195 H3         855.4056  -894.1896   297.0690 H3            1 RES     
   17196 N4         853.7308  -898.9826   295.4529 N4            1 RES     
   17197 C1         853.7599  -897.6689   295.0888 C1            1 RES     
   17198 C1         854.5840  -896.7388   295.7640 C1            1 RES     
   17199 C1         855.3833  -897.2327   296.8108 C1            1 RES     
   17200 N4         856.2626  -896.4881   297.5276 N4            1 RES     
   17201 S2         856.9263  -897.6012   298.5534 S2            1 RES     
   17202 N4         856.1655  -899.0105   298.1502 N4            1 RES     
   17203 C1         855.3401  -898.6144   297.1517 C1            1 RES     
   17204 C1         854.4973  -899.4755   296.4620 C1            1 RES     
   17205 H5         853.1227  -897.3535   294.2739 H5            1 RES     
   17206 C0         854.2427  -890.8267   296.3428 C0            1 RES     
   17207 C0         853.8636  -891.0857   297.8435 C0            1 RES     
   17208 C0         852.4123  -890.5427   298.1127 C0            1 RES     
   17209 C0         852.1607  -889.0131   298.2645 C0            1 RES     
   17210 C0         852.3677  -888.0905   297.0454 C0            1 RES     
   17211 C0         851.5693  -888.4664   295.7822 C0            1 RES     
   17212 C0         850.0498  -888.4077   295.9866 C0            1 RES     
   17213 C0         849.3144  -888.7335   294.6884 C0            1 RES     
   17214 C0         854.8012  -890.4833   298.9287 C0            1 RES     
   17215 C0         856.0096  -891.3367   299.3026 C0            1 RES     
   17216 C0         856.9202  -890.5825   300.2891 C0            1 RES     
   17217 C0         858.1796  -891.3887   300.6438 C0            1 RES     
   17218 C0         859.1750  -890.5214   301.4339 C0            1 RES     
   17219 C0         860.5430  -891.1929   301.6561 C0            1 RES     
   17220 C0         861.3237  -891.3936   300.3418 C0            1 RES     
   17221 C0         862.7209  -891.9506   300.5958 C0            1 RES     
   17222 H6         854.4038  -889.7476   296.2107 H6            1 RES     
   17223 H6         853.3046  -891.0978   295.8101 H6            1 RES     
   17224 H6         853.7693  -892.1847   297.9902 H6            1 RES     
   17225 H6         852.1003  -890.9764   299.0895 H6            1 RES     
   17226 H6         851.7021  -890.9628   297.3685 H6            1 RES     
   17227 H6         852.7803  -888.6196   299.0976 H6            1 RES     
   17228 H6         851.1045  -888.8965   298.5879 H6            1 RES     
   17229 H6         853.4405  -888.0255   296.7999 H6            1 RES     
   17230 H6         852.0804  -887.0587   297.3441 H6            1 RES     
   17231 H6         851.8543  -889.4748   295.4298 H6            1 RES     
   17232 H6         851.8444  -887.7425   294.9840 H6            1 RES     
   17233 H6         849.7359  -889.1410   296.7580 H6            1 RES     
   17234 H6         849.7590  -887.3870   296.3173 H6            1 RES     
   17235 H6         849.5893  -888.0067   293.8943 H6            1 RES     
   17236 H6         848.2182  -888.6779   294.8565 H6            1 RES     
   17237 H6         849.5707  -889.7594   294.3473 H6            1 RES     
   17238 H6         854.2428  -890.3937   299.8878 H6            1 RES     
   17239 H6         855.0961  -889.4576   298.6148 H6            1 RES     
   17240 H6         855.6720  -892.3006   299.7420 H6            1 RES     
   17241 H6         856.5705  -891.5506   298.4030 H6            1 RES     
   17242 H6         857.2338  -889.6369   299.7926 H6            1 RES     
   17243 H6         856.3687  -890.3260   301.2198 H6            1 RES     
   17244 H6         857.9131  -892.3017   301.2185 H6            1 RES     
   17245 H6         858.6512  -891.7175   299.7096 H6            1 RES     
   17246 H6         859.3544  -889.5638   300.8964 H6            1 RES     
   17247 H6         858.7218  -890.2790   302.4203 H6            1 RES     
   17248 H6         860.4124  -892.1624   302.1826 H6            1 RES     
   17249 H6         861.1405  -890.5185   302.3077 H6            1 RES     
   17250 H6         861.4269  -890.4172   299.8183 H6            1 RES     
   17251 H6         860.7967  -892.1033   299.6772 H6            1 RES     
   17252 H6         863.2505  -892.0732   299.6290 H6            1 RES     
   17253 H6         863.3051  -891.2543   301.2348 H6            1 RES     
   17254 H6         862.6553  -892.9418   301.0955 H6            1 RES     
   17255 C0         856.8340  -891.1095   295.7437 C0            1 RES     
   17256 C0         857.9700  -892.0618   296.2452 C0            1 RES     
   17257 C0         859.0436  -891.2512   297.0516 C0            1 RES     
   17258 C0         860.0589  -890.3267   296.3355 C0            1 RES     
   17259 C0         859.5294  -889.0263   295.6972 C0            1 RES     
   17260 C0         858.7534  -888.0832   296.6406 C0            1 RES     
   17261 C0         859.5646  -887.6087   297.8534 C0            1 RES     
   17262 C0         858.7438  -886.6412   298.7038 C0            1 RES     
   17263 C0         858.7233  -892.9066   295.1761 C0            1 RES     
   17264 C0         857.8965  -893.9967   294.5153 C0            1 RES     
   17265 C0         858.7355  -894.9058   293.6162 C0            1 RES     
   17266 C0         857.8451  -896.0064   293.0283 C0            1 RES     
   17267 C0         858.6438  -896.9505   292.1215 C0            1 RES     
   17268 C0         857.7925  -898.1056   291.5672 C0            1 RES     
   17269 C0         856.6446  -897.6311   290.6619 C0            1 RES     
   17270 C0         855.8763  -898.8152   290.0847 C0            1 RES     
   17271 H6         857.2461  -890.5713   294.8726 H6            1 RES     
   17272 H6         856.7080  -890.3233   296.5045 H6            1 RES     
   17273 H6         857.5259  -892.7654   296.9762 H6            1 RES     
   17274 H6         859.6678  -892.0130   297.5673 H6            1 RES     
   17275 H6         858.5557  -890.6504   297.8374 H6            1 RES     
   17276 H6         860.6215  -890.9038   295.5737 H6            1 RES     
   17277 H6         860.8064  -890.0265   297.1011 H6            1 RES     
   17278 H6         858.8975  -889.2635   294.8246 H6            1 RES     
   17279 H6         860.4053  -888.4714   295.2963 H6            1 RES     
   17280 H6         857.8300  -888.5668   297.0046 H6            1 RES     
   17281 H6         858.4487  -887.1942   296.0456 H6            1 RES     
   17282 H6         859.8457  -888.4740   298.4897 H6            1 RES     
   17283 H6         860.4884  -887.0957   297.5092 H6            1 RES     
   17284 H6         858.4589  -885.7482   298.1070 H6            1 RES     
   17285 H6         859.3417  -886.3091   299.5778 H6            1 RES     
   17286 H6         857.8209  -887.1386   299.0733 H6            1 RES     
   17287 H6         859.5569  -893.4298   295.6959 H6            1 RES     
   17288 H6         859.1600  -892.2468   294.3953 H6            1 RES     
   17289 H6         857.4647  -894.6328   295.3134 H6            1 RES     
   17290 H6         857.1174  -893.5244   293.8949 H6            1 RES     
   17291 H6         859.1909  -894.3067   292.7982 H6            1 RES     
   17292 H6         859.5478  -895.3754   294.2157 H6            1 RES     
   17293 H6         857.3945  -896.5962   293.8578 H6            1 RES     
   17294 H6         857.0326  -895.5208   292.4493 H6            1 RES     
   17295 H6         859.0877  -896.3768   291.2790 H6            1 RES     
   17296 H6         859.4727  -897.3952   292.7151 H6            1 RES     
   17297 H6         857.3822  -898.7014   292.4124 H6            1 RES     
   17298 H6         858.4643  -898.7632   290.9731 H6            1 RES     
   17299 H6         857.0563  -897.0270   289.8247 H6            1 RES     
   17300 H6         855.9273  -897.0095   291.2368 H6            1 RES     
   17301 H6         855.0550  -898.4435   289.4362 H6            1 RES     
   17302 H6         856.5510  -899.4527   289.4748 H6            1 RES     
   17303 H6         855.4362  -899.4245   290.9028 H6            1 RES     
   17304 C0         854.0069  -904.0882   299.2367 C0            1 RES     
   17305 C1         854.2130  -903.0323   298.1431 C1            1 RES     
   17306 C1         854.3905  -903.5704   296.9162 C1            1 RES     
   17307 S2         854.5876  -902.4062   295.7325 S2            1 RES     
   17308 C1         854.4269  -901.1287   296.8517 C1            1 RES     
   17309 C1         854.2187  -901.6361   298.1394 C1            1 RES     
   17310 C1         854.3423  -904.9821   297.0411 C1            1 RES     
   17311 C1         854.1593  -905.3293   298.3487 C1            1 RES     
   17312 C1         854.1422  -906.7147   298.5401 C1            1 RES     
   17313 C1         854.3314  -907.4078   297.3169 C1            1 RES     
   17314 S2         854.4733  -906.2924   296.0322 S2            1 RES     
   17315 H3         854.0805  -901.0250   299.0204 H3            1 RES     
   17316 H3         854.0133  -907.1732   299.5090 H3            1 RES     
   17317 N4         854.3755  -910.7542   295.5802 N4            1 RES     
   17318 C1         854.2432  -909.4175   295.8150 C1            1 RES     
   17319 C1         854.4555  -908.8748   297.1036 C1            1 RES     
   17320 C1         854.8268  -909.7703   298.1228 C1            1 RES     
   17321 N4         855.1137  -909.4104   299.3994 N4            1 RES     
   17322 S2         855.5225  -910.8517   300.0976 S2            1 RES     
   17323 N4         855.3641  -911.9433   298.8685 N4            1 RES     
   17324 C1         854.9727  -911.1573   297.8367 C1            1 RES     
   17325 C1         854.7339  -911.6325   296.5543 C1            1 RES     
   17326 H5         853.9576  -908.7824   294.9877 H5            1 RES     
   17327 C0         852.5064  -903.8730   299.6701 C0            1 RES     
   17328 C0         851.5995  -904.7911   300.5632 C0            1 RES     
   17329 C0         850.0884  -904.4618   300.2782 C0            1 RES     
   17330 C0         849.4405  -903.1724   300.8644 C0            1 RES     
   17331 C0         849.9196  -901.7937   300.3643 C0            1 RES     
   17332 C0         849.8478  -901.5760   298.8406 C0            1 RES     
   17333 C0         848.4195  -901.6507   298.2850 C0            1 RES     
   17334 C0         848.4056  -901.3709   296.7837 C0            1 RES     
   17335 C0         851.8148  -904.7233   302.1022 C0            1 RES     
   17336 C0         852.9147  -905.6257   302.6540 C0            1 RES     
   17337 C0         853.1121  -905.3786   304.1609 C0            1 RES     
   17338 C0         854.2534  -906.2290   304.7405 C0            1 RES     
   17339 C0         854.5815  -905.7903   306.1784 C0            1 RES     
   17340 C0         855.8418  -906.4582   306.7587 C0            1 RES     
   17341 C0         857.1296  -906.0251   306.0299 C0            1 RES     
   17342 C0         858.3748  -906.6047   306.6936 C0            1 RES     
   17343 H6         852.4467  -902.8473   300.0606 H6            1 RES     
   17344 H6         851.9774  -903.8951   298.6918 H6            1 RES     
   17345 H6         851.7162  -905.8395   300.2088 H6            1 RES     
   17346 H6         849.5042  -905.2974   300.7256 H6            1 RES     
   17347 H6         849.8837  -904.5161   299.1874 H6            1 RES     
   17348 H6         849.5346  -903.1841   301.9707 H6            1 RES     
   17349 H6         848.3528  -903.2388   300.6497 H6            1 RES     
   17350 H6         850.9457  -901.6003   300.7182 H6            1 RES     
   17351 H6         849.2966  -901.0154   300.8566 H6            1 RES     
   17352 H6         850.4861  -902.3091   298.3141 H6            1 RES     
   17353 H6         850.2549  -900.5632   298.6271 H6            1 RES     
   17354 H6         847.9921  -902.6605   298.4550 H6            1 RES     
   17355 H6         847.7824  -900.8968   298.7964 H6            1 RES     
   17356 H6         848.8101  -900.3575   296.5746 H6            1 RES     
   17357 H6         847.3634  -901.4224   296.4043 H6            1 RES     
   17358 H6         849.0182  -902.1255   296.2454 H6            1 RES     
   17359 H6         850.8985  -905.0899   302.6177 H6            1 RES     
   17360 H6         851.9619  -903.6602   302.3946 H6            1 RES     
   17361 H6         852.6622  -906.6915   302.4630 H6            1 RES     
   17362 H6         853.8374  -905.3969   302.1385 H6            1 RES     
   17363 H6         853.3721  -904.3038   304.2883 H6            1 RES     
   17364 H6         852.1742  -905.5833   304.7217 H6            1 RES     
   17365 H6         853.9936  -907.3091   304.7101 H6            1 RES     
   17366 H6         855.1402  -906.0890   304.1103 H6            1 RES     
   17367 H6         854.7388  -904.6893   306.2130 H6            1 RES     
   17368 H6         853.7091  -906.0306   306.8252 H6            1 RES     
   17369 H6         855.7347  -907.5638   306.7347 H6            1 RES     
   17370 H6         855.9270  -906.1379   307.8201 H6            1 RES     
   17371 H6         857.2100  -904.9154   306.0457 H6            1 RES     
   17372 H6         857.1200  -906.3693   304.9790 H6            1 RES     
   17373 H6         859.2771  -906.2647   306.1454 H6            1 RES     
   17374 H6         858.4484  -906.2594   307.7471 H6            1 RES     
   17375 H6         858.3409  -907.7159   306.6717 H6            1 RES     
   17376 C0         855.0918  -903.7950   300.3506 C0            1 RES     
   17377 C0         856.0977  -904.8449   300.9291 C0            1 RES     
   17378 C0         856.5007  -904.4624   302.3958 C0            1 RES     
   17379 C0         857.4720  -903.2910   302.6838 C0            1 RES     
   17380 C0         856.9713  -901.8550   302.4269 C0            1 RES     
   17381 C0         855.6686  -901.4585   303.1533 C0            1 RES     
   17382 C0         855.7497  -901.5653   304.6816 C0            1 RES     
   17383 C0         854.4415  -901.1059   305.3226 C0            1 RES     
   17384 C0         857.4105  -905.0975   300.1311 C0            1 RES     
   17385 C0         857.2279  -905.7895   298.7908 C0            1 RES     
   17386 C0         858.5586  -906.1744   298.1430 C0            1 RES     
   17387 C0         858.2919  -906.9102   296.8249 C0            1 RES     
   17388 C0         859.5990  -907.3238   296.1380 C0            1 RES     
   17389 C0         859.3653  -908.1225   294.8443 C0            1 RES     
   17390 C0         858.6339  -907.3162   293.7592 C0            1 RES     
   17391 C0         858.4892  -908.1285   292.4767 C0            1 RES     
   17392 H6         855.6938  -902.9118   300.0750 H6            1 RES     
   17393 H6         854.4719  -903.4409   301.1891 H6            1 RES     
   17394 H6         855.5666  -905.8130   301.0155 H6            1 RES     
   17395 H6         857.0081  -905.3606   302.8101 H6            1 RES     
   17396 H6         855.5979  -904.2931   303.0066 H6            1 RES     
   17397 H6         858.4240  -903.4483   302.1373 H6            1 RES     
   17398 H6         857.7286  -903.3525   303.7633 H6            1 RES     
   17399 H6         856.8460  -901.6863   301.3440 H6            1 RES     
   17400 H6         857.7748  -901.1590   302.7520 H6            1 RES     
   17401 H6         854.8223  -902.0753   302.8036 H6            1 RES     
   17402 H6         855.4438  -900.4037   302.8811 H6            1 RES     
   17403 H6         855.9307  -902.6181   304.9839 H6            1 RES     
   17404 H6         856.5809  -900.9311   305.0584 H6            1 RES     
   17405 H6         854.2338  -900.0463   305.0601 H6            1 RES     
   17406 H6         854.5139  -901.1914   306.4268 H6            1 RES     
   17407 H6         853.5966  -901.7376   304.9723 H6            1 RES     
   17408 H6         858.0425  -905.7801   300.7423 H6            1 RES     
   17409 H6         857.9667  -904.1462   299.9851 H6            1 RES     
   17410 H6         856.6630  -906.7275   298.9618 H6            1 RES     
   17411 H6         856.6983  -905.1057   298.1075 H6            1 RES     
   17412 H6         859.1614  -905.2600   297.9536 H6            1 RES     
   17413 H6         859.1254  -906.8457   298.8270 H6            1 RES     
   17414 H6         857.6863  -907.8215   297.0294 H6            1 RES     
   17415 H6         857.7125  -906.2340   296.1630 H6            1 RES     
   17416 H6         860.2082  -906.4211   295.9140 H6            1 RES     
   17417 H6         860.1770  -907.9697   296.8352 H6            1 RES     
   17418 H6         858.7896  -909.0453   295.0783 H6            1 RES     
   17419 H6         860.3607  -908.4248   294.4515 H6            1 RES     
   17420 H6         859.2055  -906.3896   293.5354 H6            1 RES     
   17421 H6         857.6154  -907.0383   294.1011 H6            1 RES     
   17422 H6         857.9587  -907.5226   291.7121 H6            1 RES     
   17423 H6         859.4892  -908.4057   292.0806 H6            1 RES     
   17424 H6         857.9022  -909.0517   292.6697 H6            1 RES     
   17425 C0         854.2238  -917.0112   296.7148 C0            1 RES     
   17426 C1         854.6172  -915.5705   296.3641 C1            1 RES     
   17427 C1         855.4211  -915.4915   295.2806 C1            1 RES     
   17428 S2         855.8191  -913.9137   294.8966 S2            1 RES     
   17429 C1         854.8999  -913.2844   296.1886 C1            1 RES     
   17430 C1         854.2919  -914.3238   296.9020 C1            1 RES     
   17431 C1         855.6615  -916.8077   294.8111 C1            1 RES     
   17432 C1         855.0290  -917.7128   295.6141 C1            1 RES     
   17433 C1         855.2620  -919.0349   295.2220 C1            1 RES     
   17434 C1         856.1114  -919.0955   294.0874 C1            1 RES     
   17435 S2         856.5156  -917.5168   293.5785 S2            1 RES     
   17436 H3         853.6519  -914.1805   297.7614 H3            1 RES     
   17437 H3         854.8471  -919.8849   295.7427 H3            1 RES     
   17438 N4         857.6826  -921.2929   291.4569 N4            1 RES     
   17439 C1         857.1497  -920.2103   292.0920 C1            1 RES     
   17440 C1         856.6590  -920.3042   293.4151 C1            1 RES     
   17441 C1         856.7636  -921.5551   294.0499 C1            1 RES     
   17442 N4         856.3867  -921.8049   295.3293 N4            1 RES     
   17443 S2         856.7900  -923.3964   295.5204 S2            1 RES     
   17444 N4         857.4328  -923.8175   294.0586 N4            1 RES     
   17445 C1         857.3422  -922.6591   293.3619 C1            1 RES     
   17446 C1         857.7909  -922.5084   292.0568 C1            1 RES     
   17447 H5         857.1004  -919.2764   291.5490 H5            1 RES     
   17448 C0         852.6777  -917.0495   296.4084 C0            1 RES     
   17449 C0         851.7245  -918.2927   296.3144 C0            1 RES     
   17450 C0         850.4470  -917.9048   295.4833 C0            1 RES     
   17451 C0         849.3257  -917.0350   296.1251 C0            1 RES     
   17452 C0         849.6289  -915.5686   296.4970 C0            1 RES     
   17453 C0         850.1613  -914.6871   295.3509 C0            1 RES     
   17454 C0         849.1671  -914.5350   294.1920 C0            1 RES     
   17455 C0         849.7258  -913.6071   293.1155 C0            1 RES     
   17456 C0         851.2431  -918.9233   297.6523 C0            1 RES     
   17457 C0         852.1842  -919.9523   298.2720 C0            1 RES     
   17458 C0         851.6582  -920.4089   299.6452 C0            1 RES     
   17459 C0         852.6113  -921.4032   300.3268 C0            1 RES     
   17460 C0         852.1832  -921.6547   301.7831 C0            1 RES     
   17461 C0         853.1967  -922.4840   302.5935 C0            1 RES     
   17462 C0         854.5283  -921.7388   302.8147 C0            1 RES     
   17463 C0         855.4721  -922.5273   303.7171 C0            1 RES     
   17464 H6         852.2160  -916.3130   297.0810 H6            1 RES     
   17465 H6         852.6362  -916.6390   295.3755 H6            1 RES     
   17466 H6         852.2261  -919.0646   295.6891 H6            1 RES     
   17467 H6         849.9453  -918.8654   295.2283 H6            1 RES     
   17468 H6         850.7442  -917.4645   294.5073 H6            1 RES     
   17469 H6         848.9409  -917.5435   297.0341 H6            1 RES     
   17470 H6         848.4823  -917.0219   295.4025 H6            1 RES     
   17471 H6         850.3291  -915.5327   297.3479 H6            1 RES     
   17472 H6         848.6905  -915.1115   296.8803 H6            1 RES     
   17473 H6         851.1167  -915.0881   294.9655 H6            1 RES     
   17474 H6         850.3668  -913.6783   295.7715 H6            1 RES     
   17475 H6         848.9615  -915.5221   293.7285 H6            1 RES     
   17476 H6         848.2142  -914.1087   294.5741 H6            1 RES     
   17477 H6         849.9272  -912.5997   293.5386 H6            1 RES     
   17478 H6         848.9886  -913.5052   292.2915 H6            1 RES     
   17479 H6         850.6689  -914.0225   292.7002 H6            1 RES     
   17480 H6         850.3108  -919.5042   297.4701 H6            1 RES     
   17481 H6         850.9948  -918.1042   298.3629 H6            1 RES     
   17482 H6         852.2981  -920.8221   297.5888 H6            1 RES     
   17483 H6         853.1549  -919.4941   298.4043 H6            1 RES     
   17484 H6         851.5758  -919.5023   300.2857 H6            1 RES     
   17485 H6         850.6493  -920.8665   299.5503 H6            1 RES     
   17486 H6         852.6540  -922.3584   299.7604 H6            1 RES     
   17487 H6         853.6204  -920.9731   300.3174 H6            1 RES     
   17488 H6         852.0443  -920.6851   302.3111 H6            1 RES     
   17489 H6         851.2036  -922.1814   301.7740 H6            1 RES     
   17490 H6         853.3761  -923.4612   302.0966 H6            1 RES     
   17491 H6         852.7443  -922.6764   303.5909 H6            1 RES     
   17492 H6         854.3280  -920.7547   303.2937 H6            1 RES     
   17493 H6         855.0478  -921.5707   301.8530 H6            1 RES     
   17494 H6         856.4123  -921.9556   303.8566 H6            1 RES     
   17495 H6         855.0070  -922.6941   304.7123 H6            1 RES     
   17496 H6         855.7159  -923.5089   303.2552 H6            1 RES     
   17497 C0         854.6290  -917.2287   298.2288 C0            1 RES     
   17498 C0         855.5118  -918.4035   298.7669 C0            1 RES     
   17499 C0         855.1502  -918.7164   300.2607 C0            1 RES     
   17500 C0         855.5981  -917.7801   301.4101 C0            1 RES     
   17501 C0         854.9284  -916.3950   301.5186 C0            1 RES     
   17502 C0         853.3877  -916.3996   301.6080 C0            1 RES     
   17503 C0         852.8350  -917.1841   302.8051 C0            1 RES     
   17504 C0         851.3109  -917.0942   302.8491 C0            1 RES     
   17505 C0         857.0576  -918.2379   298.6817 C0            1 RES     
   17506 C0         857.6315  -918.2530   297.2749 C0            1 RES     
   17507 C0         859.1606  -918.2729   297.2653 C0            1 RES     
   17508 C0         859.6621  -918.3390   295.8182 C0            1 RES     
   17509 C0         861.1940  -918.3673   295.7553 C0            1 RES     
   17510 C0         861.7288  -918.4997   294.3191 C0            1 RES     
   17511 C0         861.3590  -917.3069   293.4232 C0            1 RES     
   17512 C0         861.9701  -917.4544   292.0338 C0            1 RES     
   17513 H6         855.0621  -916.3029   298.6456 H6            1 RES     
   17514 H6         853.6473  -917.3064   298.7218 H6            1 RES     
   17515 H6         855.2412  -919.3179   298.2035 H6            1 RES     
   17516 H6         855.6311  -919.6931   300.4861 H6            1 RES     
   17517 H6         854.0620  -918.8623   300.3662 H6            1 RES     
   17518 H6         856.6992  -917.6515   301.3835 H6            1 RES     
   17519 H6         855.3786  -918.3173   302.3578 H6            1 RES     
   17520 H6         855.2386  -915.7577   300.6732 H6            1 RES     
   17521 H6         855.3269  -915.9031   302.4323 H6            1 RES     
   17522 H6         852.9434  -916.8108   300.6847 H6            1 RES     
   17523 H6         853.0561  -915.3412   301.6917 H6            1 RES     
   17524 H6         853.1151  -918.2554   302.7245 H6            1 RES     
   17525 H6         853.2506  -916.7701   303.7490 H6            1 RES     
   17526 H6         850.9889  -916.0355   302.9506 H6            1 RES     
   17527 H6         850.9256  -917.6681   303.7174 H6            1 RES     
   17528 H6         850.8716  -917.5183   301.9203 H6            1 RES     
   17529 H6         857.5124  -919.1085   299.2052 H6            1 RES     
   17530 H6         857.3793  -917.3110   299.2041 H6            1 RES     
   17531 H6         857.2883  -919.1795   296.7730 H6            1 RES     
   17532 H6         857.2964  -917.3464   296.7450 H6            1 RES     
   17533 H6         859.5503  -917.3581   297.7620 H6            1 RES     
   17534 H6         859.5249  -919.1678   297.8186 H6            1 RES     
   17535 H6         859.2628  -919.2578   295.3330 H6            1 RES     
   17536 H6         859.2761  -917.4499   295.2779 H6            1 RES     
   17537 H6         861.6067  -917.4472   296.2235 H6            1 RES     
   17538 H6         861.5564  -919.2453   296.3341 H6            1 RES     
   17539 H6         861.3459  -919.4414   293.8672 H6            1 RES     
   17540 H6         862.8371  -918.5690   294.3782 H6            1 RES     
   17541 H6         861.7331  -916.3664   293.8825 H6            1 RES     
   17542 H6         860.2579  -917.2369   293.3035 H6            1 RES     
   17543 H6         861.6872  -916.5806   291.4098 H6            1 RES     
   17544 H6         863.0777  -917.4997   292.1023 H6            1 RES     
   17545 H6         861.5947  -918.3783   291.5441 H6            1 RES     
   17546 C0         858.5556  -927.3884   289.8620 C0            1 RES     
   17547 C1         858.7057  -925.9362   290.3333 C1            1 RES     
   17548 C1         859.8493  -925.3574   289.9046 C1            1 RES     
   17549 S2         859.9850  -923.7679   290.4048 S2            1 RES     
   17550 C1         858.4838  -923.8121   291.2141 C1            1 RES     
   17551 C1         857.8969  -925.0753   291.0776 C1            1 RES     
   17552 C1         860.5714  -926.3133   289.1459 C1            1 RES     
   17553 C1         859.8931  -927.4978   289.1196 C1            1 RES     
   17554 C1         860.5774  -928.4940   288.4158 C1            1 RES     
   17555 C1         861.8155  -928.0156   287.9153 C1            1 RES     
   17556 S2         862.0095  -926.3686   288.3210 S2            1 RES     
   17557 H3         856.9388  -925.3508   291.4958 H3            1 RES     
   17558 H3         860.1959  -929.4968   288.2950 H3            1 RES     
   17559 N4         864.8273  -928.7495   285.7688 N4            1 RES     
   17560 C1         863.8348  -928.0835   286.4251 C1            1 RES     
   17561 C1         862.8667  -928.7768   287.1882 C1            1 RES     
   17562 C1         862.9858  -930.1767   287.2550 C1            1 RES     
   17563 N4         862.1728  -930.9867   287.9791 N4            1 RES     
   17564 S2         862.8223  -932.4829   287.7117 S2            1 RES     
   17565 N4         864.1046  -932.1827   286.7152 N4            1 RES     
   17566 C1         864.0458  -930.8369   286.5711 C1            1 RES     
   17567 C1         864.9562  -930.1020   285.8235 C1            1 RES     
   17568 H5         863.8003  -927.0064   286.3351 H5            1 RES     
   17569 C0         857.3440  -927.3193   288.8555 C0            1 RES     
   17570 C0         856.8467  -928.4070   287.8394 C0            1 RES     
   17571 C0         855.9913  -927.7144   286.7160 C0            1 RES     
   17572 C0         854.5323  -927.2547   287.0097 C0            1 RES     
   17573 C0         854.2908  -926.1085   288.0138 C0            1 RES     
   17574 C0         855.0330  -924.7921   287.7133 C0            1 RES     
   17575 C0         854.6203  -924.1552   286.3797 C0            1 RES     
   17576 C0         855.3449  -922.8283   286.1645 C0            1 RES     
   17577 C0         856.0080  -929.5852   288.4118 C0            1 RES     
   17578 C0         856.8117  -930.7614   288.9587 C0            1 RES     
   17579 C0         855.8776  -931.8015   289.6043 C0            1 RES     
   17580 C0         856.6572  -932.9745   290.2190 C0            1 RES     
   17581 C0         855.7248  -933.8671   291.0563 C0            1 RES     
   17582 C0         856.4632  -934.9498   291.8650 C0            1 RES     
   17583 C0         857.3555  -934.3550   292.9728 C0            1 RES     
   17584 C0         857.9844  -935.4445   293.8355 C0            1 RES     
   17585 H6         856.4801  -926.9772   289.4424 H6            1 RES     
   17586 H6         857.6488  -926.4871   288.1833 H6            1 RES     
   17587 H6         857.7338  -928.8010   287.2952 H6            1 RES     
   17588 H6         855.8895  -928.4671   285.9020 H6            1 RES     
   17589 H6         856.5606  -926.8737   286.2645 H6            1 RES     
   17590 H6         853.9312  -928.1280   287.3397 H6            1 RES     
   17591 H6         854.0992  -926.9356   286.0380 H6            1 RES     
   17592 H6         854.5328  -926.4453   289.0354 H6            1 RES     
   17593 H6         853.1997  -925.8956   288.0346 H6            1 RES     
   17594 H6         856.1267  -924.9536   287.7208 H6            1 RES     
   17595 H6         854.7942  -924.0781   288.5319 H6            1 RES     
   17596 H6         854.8721  -924.8304   285.5358 H6            1 RES     
   17597 H6         853.5243  -923.9696   286.3805 H6            1 RES     
   17598 H6         855.1017  -922.1168   286.9824 H6            1 RES     
   17599 H6         855.0265  -922.3816   285.1991 H6            1 RES     
   17600 H6         856.4439  -922.9893   286.1370 H6            1 RES     
   17601 H6         855.4089  -930.0420   287.5919 H6            1 RES     
   17602 H6         855.2946  -929.1819   289.1641 H6            1 RES     
   17603 H6         857.4079  -931.2254   288.1430 H6            1 RES     
   17604 H6         857.4946  -930.3906   289.7108 H6            1 RES     
   17605 H6         855.3182  -931.2846   290.4160 H6            1 RES     
   17606 H6         855.1452  -932.1896   288.8632 H6            1 RES     
   17607 H6         857.1621  -933.5691   289.4274 H6            1 RES     
   17608 H6         857.4406  -932.5638   290.8678 H6            1 RES     
   17609 H6         855.1488  -933.2445   291.7765 H6            1 RES     
   17610 H6         854.9979  -934.3549   290.3700 H6            1 RES     
   17611 H6         857.0632  -935.5923   291.1857 H6            1 RES     
   17612 H6         855.6903  -935.5827   292.3533 H6            1 RES     
   17613 H6         856.7433  -933.6987   293.6305 H6            1 RES     
   17614 H6         858.1778  -933.7584   292.5358 H6            1 RES     
   17615 H6         858.6107  -934.9765   294.6222 H6            1 RES     
   17616 H6         857.1953  -936.0539   294.3258 H6            1 RES     
   17617 H6         858.6268  -936.1053   293.2135 H6            1 RES     
   17618 C0         858.3185  -928.2577   291.1627 C0            1 RES     
   17619 C0         859.1405  -929.5283   291.5611 C0            1 RES     
   17620 C0         858.2648  -930.4910   292.4364 C0            1 RES     
   17621 C0         857.9456  -930.1658   293.9165 C0            1 RES     
   17622 C0         856.9853  -928.9951   294.2099 C0            1 RES     
   17623 C0         855.6024  -929.0748   293.5295 C0            1 RES     
   17624 C0         854.7977  -930.3282   293.8976 C0            1 RES     
   17625 C0         853.4261  -930.3027   293.2260 C0            1 RES     
   17626 C0         860.4878  -929.3068   292.3093 C0            1 RES     
   17627 C0         861.5901  -928.6711   291.4790 C0            1 RES     
   17628 C0         862.9348  -928.6495   292.2069 C0            1 RES     
   17629 C0         864.0030  -928.0427   291.2901 C0            1 RES     
   17630 C0         865.3747  -928.0045   291.9744 C0            1 RES     
   17631 C0         866.4832  -927.4609   291.0568 C0            1 RES     
   17632 C0         866.2569  -926.0006   290.6340 C0            1 RES     
   17633 C0         867.4158  -925.4900   289.7843 C0            1 RES     
   17634 H6         858.2998  -927.6108   292.0569 H6            1 RES     
   17635 H6         857.2700  -928.5722   291.0423 H6            1 RES     
   17636 H6         859.3606  -930.0950   290.6352 H6            1 RES     
   17637 H6         858.8214  -931.4528   292.4707 H6            1 RES     
   17638 H6         857.3040  -930.6937   291.9341 H6            1 RES     
   17639 H6         858.8883  -930.0139   294.4805 H6            1 RES     
   17640 H6         857.4791  -931.0783   294.3463 H6            1 RES     
   17641 H6         857.4637  -928.0376   293.9432 H6            1 RES     
   17642 H6         856.8286  -928.9606   295.3100 H6            1 RES     
   17643 H6         855.7039  -929.0341   292.4309 H6            1 RES     
   17644 H6         855.0256  -928.1765   293.8419 H6            1 RES     
   17645 H6         855.3313  -931.2406   293.5576 H6            1 RES     
   17646 H6         854.6616  -930.3764   294.9994 H6            1 RES     
   17647 H6         852.8501  -929.4120   293.5571 H6            1 RES     
   17648 H6         852.8573  -931.2159   293.4987 H6            1 RES     
   17649 H6         853.5375  -930.2709   292.1204 H6            1 RES     
   17650 H6         860.8698  -930.3094   292.6056 H6            1 RES     
   17651 H6         860.3268  -928.7093   293.2327 H6            1 RES     
   17652 H6         861.7236  -929.2781   290.5615 H6            1 RES     
   17653 H6         861.3068  -927.6307   291.2499 H6            1 RES     
   17654 H6         862.8469  -928.0496   293.1385 H6            1 RES     
   17655 H6         863.2308  -929.6893   292.4731 H6            1 RES     
   17656 H6         864.0785  -928.6516   290.3614 H6            1 RES     
   17657 H6         863.6839  -927.0144   291.0214 H6            1 RES     
   17658 H6         865.3179  -927.3864   292.8969 H6            1 RES     
   17659 H6         865.6544  -929.0408   292.2662 H6            1 RES     
   17660 H6         866.5644  -928.1049   290.1533 H6            1 RES     
   17661 H6         867.4429  -927.5241   291.6152 H6            1 RES     
   17662 H6         866.1652  -925.3612   291.5386 H6            1 RES     
   17663 H6         865.3292  -925.9093   290.0319 H6            1 RES     
   17664 H6         867.2259  -924.4351   289.4941 H6            1 RES     
   17665 H6         868.3652  -925.5360   290.3589 H6            1 RES     
   17666 H6         867.5154  -926.1009   288.8618 H6            1 RES     
   17667 C0         867.7160  -933.4432   282.5930 C0            1 RES     
   17668 C1         867.3018  -932.3581   283.5953 C1            1 RES     
   17669 C1         868.3453  -931.6221   284.0378 C1            1 RES     
   17670 S2         867.8737  -930.4279   285.1088 S2            1 RES     
   17671 C1         866.2292  -930.8675   284.9969 C1            1 RES     
   17672 C1         866.0746  -931.9456   284.1177 C1            1 RES     
   17673 C1         869.5256  -932.1148   283.4254 C1            1 RES     
   17674 C1         869.2256  -933.1745   282.6185 C1            1 RES     
   17675 C1         870.3591  -933.7289   282.0152 C1            1 RES     
   17676 C1         871.5395  -933.0477   282.4087 C1            1 RES     
   17677 S2         871.1453  -931.7583   283.4559 S2            1 RES     
   17678 H3         865.1254  -932.4021   283.8740 H3            1 RES     
   17679 H3         870.3154  -934.5770   281.3485 H3            1 RES     
   17680 N4         875.2565  -932.6627   281.9060 N4            1 RES     
   17681 C1         873.9525  -932.3884   282.1951 C1            1 RES     
   17682 C1         872.9475  -933.3737   282.0560 C1            1 RES     
   17683 C1         873.3560  -934.6494   281.6267 C1            1 RES     
   17684 N4         872.5307  -935.7175   281.4874 N4            1 RES     
   17685 S2         873.5674  -936.9158   281.0168 S2            1 RES     
   17686 N4         875.0393  -936.1683   280.9741 N4            1 RES     
   17687 C1         874.7293  -934.9045   281.3511 C1            1 RES     
   17688 C1         875.6673  -933.8904   281.4903 C1            1 RES     
   17689 H5         873.7045  -931.3881   282.5228 H5            1 RES     
   17690 C0         867.0684  -932.9541   281.2413 C0            1 RES     
   17691 C0         867.3238  -933.4758   279.7833 C0            1 RES     
   17692 C0         866.8887  -932.3698   278.7534 C0            1 RES     
   17693 C0         865.3802  -932.1261   278.4518 C0            1 RES     
   17694 C0         864.4704  -931.5637   279.5638 C0            1 RES     
   17695 C0         864.9336  -930.2371   280.1960 C0            1 RES     
   17696 C0         864.9878  -929.0756   279.1948 C0            1 RES     
   17697 C0         865.3969  -927.7786   279.8895 C0            1 RES     
   17698 C0         866.6281  -934.8044   279.3707 C0            1 RES     
   17699 C0         867.3776  -936.0821   279.7370 C0            1 RES     
   17700 C0         866.5347  -937.3227   279.3886 C0            1 RES     
   17701 C0         867.2336  -938.6287   279.7976 C0            1 RES     
   17702 C0         866.2756  -939.8245   279.6573 C0            1 RES     
   17703 C0         866.8348  -941.1387   280.2333 C0            1 RES     
   17704 C0         867.0026  -941.0889   281.7651 C0            1 RES     
   17705 C0         867.4447  -942.4361   282.3276 C0            1 RES     
   17706 H6         865.9831  -932.9343   281.4136 H6            1 RES     
   17707 H6         867.4222  -931.9012   281.1828 H6            1 RES     
   17708 H6         868.4235  -933.5608   279.6358 H6            1 RES     
   17709 H6         867.3243  -932.6752   277.7753 H6            1 RES     
   17710 H6         867.3780  -931.4031   278.9999 H6            1 RES     
   17711 H6         864.9224  -933.0677   278.0820 H6            1 RES     
   17712 H6         865.3385  -931.4120   277.6021 H6            1 RES     
   17713 H6         864.3282  -932.3204   280.3529 H6            1 RES     
   17714 H6         863.4578  -931.4082   279.1318 H6            1 RES     
   17715 H6         865.9242  -930.3595   280.6712 H6            1 RES     
   17716 H6         864.2077  -929.9761   280.9973 H6            1 RES     
   17717 H6         865.7266  -929.2902   278.3951 H6            1 RES     
   17718 H6         863.9858  -928.9355   278.7344 H6            1 RES     
   17719 H6         864.6681  -927.5196   280.6871 H6            1 RES     
   17720 H6         865.4224  -926.9511   279.1497 H6            1 RES     
   17721 H6         866.4069  -927.8846   280.3401 H6            1 RES     
   17722 H6         866.5613  -934.8546   278.2604 H6            1 RES     
   17723 H6         865.5896  -934.8012   279.7695 H6            1 RES     
   17724 H6         868.3551  -936.1132   279.2081 H6            1 RES     
   17725 H6         867.5667  -936.0759   280.8018 H6            1 RES     
   17726 H6         865.5785  -937.2416   279.9526 H6            1 RES     
   17727 H6         866.3017  -937.3503   278.3018 H6            1 RES     
   17728 H6         868.1521  -938.7894   279.1929 H6            1 RES     
   17729 H6         867.5449  -938.5380   280.8456 H6            1 RES     
   17730 H6         865.3187  -939.6082   280.1822 H6            1 RES     
   17731 H6         866.0480  -939.9657   278.5777 H6            1 RES     
   17732 H6         867.8001  -941.3907   279.7444 H6            1 RES     
   17733 H6         866.1026  -941.9415   279.9967 H6            1 RES     
   17734 H6         866.0326  -940.8151   282.2363 H6            1 RES     
   17735 H6         867.7648  -940.3406   282.0519 H6            1 RES     
   17736 H6         867.5466  -942.3603   283.4294 H6            1 RES     
   17737 H6         866.6920  -943.2192   282.0938 H6            1 RES     
   17738 H6         868.4272  -942.7294   281.8972 H6            1 RES     
   17739 C0         867.1632  -934.8119   283.1630 C0            1 RES     
   17740 C0         868.0142  -936.1062   283.3853 C0            1 RES     
   17741 C0         867.1064  -937.3804   283.2754 C0            1 RES     
   17742 C0         866.1218  -937.7670   284.4066 C0            1 RES     
   17743 C0         864.8800  -936.8778   284.6211 C0            1 RES     
   17744 C0         863.9796  -936.6728   283.3845 C0            1 RES     
   17745 C0         863.4183  -937.9751   282.7992 C0            1 RES     
   17746 C0         862.4991  -937.6800   281.6155 C0            1 RES     
   17747 C0         868.8210  -936.2163   284.7125 C0            1 RES     
   17748 C0         869.9854  -935.2488   284.8419 C0            1 RES     
   17749 C0         870.8460  -935.5281   286.0747 C0            1 RES     
   17750 C0         872.0242  -934.5480   286.1086 C0            1 RES     
   17751 C0         872.9230  -934.7921   287.3268 C0            1 RES     
   17752 C0         874.1518  -933.8672   287.3553 C0            1 RES     
   17753 C0         873.7866  -932.3791   287.4764 C0            1 RES     
   17754 C0         875.0384  -931.5132   287.5699 C0            1 RES     
   17755 H6         866.6135  -934.6398   284.1047 H6            1 RES     
   17756 H6         866.3731  -935.0618   282.4378 H6            1 RES     
   17757 H6         868.7343  -936.1878   282.5478 H6            1 RES     
   17758 H6         867.8067  -938.2408   283.2021 H6            1 RES     
   17759 H6         866.5283  -937.3559   282.3363 H6            1 RES     
   17760 H6         866.6699  -937.8651   285.3656 H6            1 RES     
   17761 H6         865.7487  -938.7856   284.1653 H6            1 RES     
   17762 H6         865.1836  -935.8925   285.0134 H6            1 RES     
   17763 H6         864.2678  -937.3480   285.4211 H6            1 RES     
   17764 H6         864.5251  -936.1373   282.5879 H6            1 RES     
   17765 H6         863.1296  -936.0262   283.6954 H6            1 RES     
   17766 H6         864.2456  -938.6227   282.4402 H6            1 RES     
   17767 H6         862.8431  -938.5194   283.5787 H6            1 RES     
   17768 H6         861.6436  -937.0487   281.9386 H6            1 RES     
   17769 H6         862.1034  -938.6305   281.2011 H6            1 RES     
   17770 H6         863.0582  -937.1492   280.8147 H6            1 RES     
   17771 H6         869.2672  -937.2355   284.7441 H6            1 RES     
   17772 H6         868.1463  -936.1047   285.5888 H6            1 RES     
   17773 H6         870.6358  -935.3721   283.9532 H6            1 RES     
   17774 H6         869.5879  -934.2241   284.9254 H6            1 RES     
   17775 H6         870.2312  -935.4164   286.9940 H6            1 RES     
   17776 H6         871.2388  -936.5688   286.0267 H6            1 RES     
   17777 H6         872.6292  -934.6693   285.1822 H6            1 RES     
   17778 H6         871.6151  -933.5170   286.1390 H6            1 RES     
   17779 H6         872.3348  -934.6594   288.2609 H6            1 RES     
   17780 H6         873.2898  -935.8417   287.2923 H6            1 RES     
   17781 H6         874.7594  -934.0310   286.4378 H6            1 RES     
   17782 H6         874.7682  -934.1541   288.2353 H6            1 RES     
   17783 H6         873.1705  -932.2202   288.3878 H6            1 RES     
   17784 H6         873.2100  -932.0466   286.5884 H6            1 RES     
   17785 H6         874.7450  -930.4457   287.6565 H6            1 RES     
   17786 H6         875.6348  -931.7924   288.4643 H6            1 RES     
   17787 H6         875.6622  -931.6384   286.6592 H6            1 RES     
   17788 C0         880.2441  -935.3457   279.0101 C0            1 RES     
   17789 C1         879.1989  -934.8409   280.0131 C1            1 RES     
   17790 C1         879.7477  -934.3609   281.1511 C1            1 RES     
   17791 S2         878.5972  -933.7912   282.2221 S2            1 RES     
   17792 C1         877.3124  -934.1701   281.1656 C1            1 RES     
   17793 C1         877.8068  -934.7373   279.9855 C1            1 RES     
   17794 C1         881.1559  -934.4964   281.0544 C1            1 RES     
   17795 C1         881.4883  -935.0832   279.8674 C1            1 RES     
   17796 C1         882.8665  -935.2788   279.7314 C1            1 RES     
   17797 C1         883.5688  -934.8224   280.8763 C1            1 RES     
   17798 S2         882.4733  -934.1553   282.0030 S2            1 RES     
   17799 H3         877.1896  -935.0559   279.1570 H3            1 RES     
   17800 H3         883.3129  -935.7346   278.8604 H3            1 RES     
   17801 N4         886.9380  -934.1670   282.4368 N4            1 RES     
   17802 C1         885.6108  -934.0829   282.1355 C1            1 RES     
   17803 C1         885.0261  -934.9215   281.1583 C1            1 RES     
   17804 C1         885.8684  -935.8555   280.5285 C1            1 RES     
   17805 N4         885.4605  -936.7637   279.6065 N4            1 RES     
   17806 S2         886.8507  -937.5956   279.2794 S2            1 RES     
   17807 N4         887.9772  -936.8762   280.2494 N4            1 RES     
   17808 C1         887.2459  -935.9269   280.8814 C1            1 RES     
   17809 C1         887.7652  -935.0643   281.8373 C1            1 RES     
   17810 H5         885.0173  -933.3449   282.6576 H5            1 RES     
   17811 C0         880.1359  -934.3132   277.8235 C0            1 RES     
   17812 C0         881.1021  -934.1132   276.6030 C0            1 RES     
   17813 C0         880.8964  -932.6713   276.0099 C0            1 RES     
   17814 C0         879.6486  -932.3520   275.1341 C0            1 RES     
   17815 C0         878.2480  -932.3742   275.7809 C0            1 RES     
   17816 C0         878.0688  -931.4666   277.0132 C0            1 RES     
   17817 C0         878.2652  -929.9771   276.7018 C0            1 RES     
   17818 C0         878.0194  -929.1254   277.9453 C0            1 RES     
   17819 C0         880.9852  -935.1271   275.4292 C0            1 RES     
   17820 C0         881.7882  -936.4148   275.5885 C0            1 RES     
   17821 C0         881.4946  -937.3827   274.4274 C0            1 RES     
   17822 C0         882.2420  -938.7162   274.5847 C0            1 RES     
   17823 C0         881.7489  -939.7408   273.5481 C0            1 RES     
   17824 C0         882.3052  -941.1603   273.7653 C0            1 RES     
   17825 C0         881.7896  -941.8048   275.0676 C0            1 RES     
   17826 C0         882.2573  -943.2502   275.2045 C0            1 RES     
   17827 H6         879.1099  -934.3982   277.4389 H6            1 RES     
   17828 H6         880.2196  -933.3398   278.3554 H6            1 RES     
   17829 H6         882.1456  -934.0972   276.9890 H6            1 RES     
   17830 H6         881.7647  -932.4913   275.3367 H6            1 RES     
   17831 H6         880.9894  -931.9097   276.8136 H6            1 RES     
   17832 H6         879.6294  -933.0348   274.2586 H6            1 RES     
   17833 H6         879.8032  -931.3320   274.7225 H6            1 RES     
   17834 H6         877.9686  -933.4089   276.0391 H6            1 RES     
   17835 H6         877.5097  -932.0633   275.0098 H6            1 RES     
   17836 H6         878.7617  -931.7681   277.8202 H6            1 RES     
   17837 H6         877.0325  -931.6129   277.3894 H6            1 RES     
   17838 H6         879.3012  -929.7899   276.3508 H6            1 RES     
   17839 H6         877.5520  -929.6668   275.9076 H6            1 RES     
   17840 H6         876.9825  -929.2718   278.3165 H6            1 RES     
   17841 H6         878.1591  -928.0524   277.6963 H6            1 RES     
   17842 H6         878.7358  -929.4006   278.7488 H6            1 RES     
   17843 H6         881.4102  -934.6713   274.5065 H6            1 RES     
   17844 H6         879.9079  -935.3284   275.2386 H6            1 RES     
   17845 H6         882.8741  -936.1812   275.6367 H6            1 RES     
   17846 H6         881.4999  -936.8865   276.5180 H6            1 RES     
   17847 H6         880.4005  -937.5873   274.4363 H6            1 RES     
   17848 H6         881.7591  -936.9212   273.4510 H6            1 RES     
   17849 H6         883.3393  -938.5650   274.4948 H6            1 RES     
   17850 H6         882.0475  -939.1021   275.5929 H6            1 RES     
   17851 H6         880.6385  -939.8071   273.5781 H6            1 RES     
   17852 H6         882.0418  -939.3837   272.5362 H6            1 RES     
   17853 H6         883.4159  -941.1419   273.7538 H6            1 RES     
   17854 H6         881.9568  -941.7858   272.9145 H6            1 RES     
   17855 H6         880.6770  -941.7959   275.0712 H6            1 RES     
   17856 H6         882.1559  -941.2498   275.9513 H6            1 RES     
   17857 H6         881.8605  -943.6785   276.1475 H6            1 RES     
   17858 H6         881.8851  -943.8599   274.3535 H6            1 RES     
   17859 H6         883.3680  -943.2946   275.2314 H6            1 RES     
   17860 C0         879.8445  -936.8365   278.6611 C0            1 RES     
   17861 C0         880.8012  -938.0716   278.7503 C0            1 RES     
   17862 C0         880.3576  -939.1787   277.7318 C0            1 RES     
   17863 C0         879.1091  -940.0574   277.9916 C0            1 RES     
   17864 C0         877.7217  -939.3899   277.8990 C0            1 RES     
   17865 C0         877.4114  -938.6685   276.5704 C0            1 RES     
   17866 C0         877.4791  -939.5778   275.3366 C0            1 RES     
   17867 C0         877.1084  -938.8004   274.0751 C0            1 RES     
   17868 C0         880.9688  -938.7515   280.1409 C0            1 RES     
   17869 C0         881.7011  -937.9208   281.1812 C0            1 RES     
   17870 C0         881.9960  -938.7076   282.4589 C0            1 RES     
   17871 C0         882.7780  -937.8222   283.4359 C0            1 RES     
   17872 C0         883.1041  -938.5702   284.7342 C0            1 RES     
   17873 C0         883.9457  -937.7303   285.7102 C0            1 RES     
   17874 C0         883.2215  -936.4666   286.2011 C0            1 RES     
   17875 C0         884.0696  -935.7083   287.2166 C0            1 RES     
   17876 H6         878.9235  -937.1214   279.1988 H6            1 RES     
   17877 H6         879.5215  -936.7494   277.6119 H6            1 RES     
   17878 H6         881.8053  -937.7491   278.4118 H6            1 RES     
   17879 H6         881.2051  -939.8967   277.6831 H6            1 RES     
   17880 H6         880.2455  -938.7454   276.7236 H6            1 RES     
   17881 H6         879.2041  -940.5660   278.9724 H6            1 RES     
   17882 H6         879.1277  -940.8650   277.2285 H6            1 RES     
   17883 H6         877.5862  -938.6819   278.7340 H6            1 RES     
   17884 H6         876.9591  -940.1849   278.0478 H6            1 RES     
   17885 H6         878.0989  -937.8184   276.4170 H6            1 RES     
   17886 H6         876.3831  -938.2520   276.6503 H6            1 RES     
   17887 H6         878.5082  -939.9740   275.2076 H6            1 RES     
   17888 H6         876.7749  -940.4288   275.4587 H6            1 RES     
   17889 H6         876.0738  -938.4032   274.1560 H6            1 RES     
   17890 H6         877.1646  -939.4696   273.1914 H6            1 RES     
   17891 H6         877.8106  -937.9522   273.9233 H6            1 RES     
   17892 H6         881.5874  -939.6643   279.9899 H6            1 RES     
   17893 H6         879.9808  -939.0636   280.5434 H6            1 RES     
   17894 H6         882.6760  -937.6140   280.7527 H6            1 RES     
   17895 H6         881.0748  -937.0540   281.4485 H6            1 RES     
   17896 H6         881.0420  -939.0378   282.9242 H6            1 RES     
   17897 H6         882.6069  -939.6049   282.2111 H6            1 RES     
   17898 H6         883.7287  -937.4976   282.9565 H6            1 RES     
   17899 H6         882.1627  -936.9260   283.6582 H6            1 RES     
   17900 H6         882.1621  -938.8877   285.2322 H6            1 RES     
   17901 H6         883.6886  -939.4820   284.4809 H6            1 RES     
   17902 H6         884.9050  -937.4477   285.2227 H6            1 RES     
   17903 H6         884.1788  -938.3700   286.5895 H6            1 RES     
   17904 H6         882.2585  -936.7511   286.6778 H6            1 RES     
   17905 H6         883.0157  -935.7818   285.3525 H6            1 RES     
   17906 H6         883.5228  -934.8023   287.5533 H6            1 RES     
   17907 H6         884.2772  -936.3480   288.1004 H6            1 RES     
   17908 H6         885.0310  -935.3939   286.7572 H6            1 RES     
   17909 C0         893.1626  -935.1359   281.5554 C0            1 RES     
   17910 C1         891.7036  -935.1632   282.0288 C1            1 RES     
   17911 C1         891.5859  -935.2373   283.3731 C1            1 RES     
   17912 S2         889.9906  -935.2399   283.8735 S2            1 RES     
   17913 C1         889.4067  -935.1293   282.2744 C1            1 RES     
   17914 C1         890.4746  -935.0901   281.3704 C1            1 RES     
   17915 C1         892.8894  -935.2822   283.9295 C1            1 RES     
   17916 C1         893.8232  -935.2611   282.9338 C1            1 RES     
   17917 C1         895.1315  -935.3425   283.4215 C1            1 RES     
   17918 C1         895.1505  -935.4373   284.8368 C1            1 RES     
   17919 S2         893.5565  -935.3770   285.4453 S2            1 RES     
   17920 H3         890.3628  -935.0136   280.2978 H3            1 RES     
   17921 H3         895.9996  -935.3448   282.7797 H3            1 RES     
   17922 N4         897.2757  -935.4816   287.9510 N4            1 RES     
   17923 C1         896.2241  -935.3007   287.1021 C1            1 RES     
   17924 C1         896.3275  -935.6198   285.7281 C1            1 RES     
   17925 C1         897.5528  -936.1486   285.2836 C1            1 RES     
   17926 N4         897.8037  -936.5508   284.0121 N4            1 RES     
   17927 S2         899.3549  -937.1129   284.1106 S2            1 RES     
   17928 N4         899.7562  -936.8843   285.6962 N4            1 RES     
   17929 C1         898.6233  -936.3405   286.2024 C1            1 RES     
   17930 C1         898.4662  -935.9918   287.5370 C1            1 RES     
   17931 H5         895.3086  -934.8923   287.5075 H5            1 RES     
   17932 C0         893.3264  -933.6811   280.9701 C0            1 RES     
   17933 C0         894.6411  -932.9289   280.5593 C0            1 RES     
   17934 C0         894.3705  -931.3797   280.5498 C0            1 RES     
   17935 C0         893.5763  -930.7275   279.3794 C0            1 RES     
   17936 C0         892.0834  -931.0717   279.1975 C0            1 RES     
   17937 C0         891.1880  -930.8238   280.4267 C0            1 RES     
   17938 C0         891.1377  -929.3504   280.8520 C0            1 RES     
   17939 C0         890.1926  -929.1590   282.0361 C0            1 RES     
   17940 C0         895.2784  -933.3048   279.1911 C0            1 RES     
   17941 C0         896.2184  -934.5066   279.2100 C0            1 RES     
   17942 C0         896.6849  -934.8513   277.7836 C0            1 RES     
   17943 C0         897.5880  -936.0943   277.7563 C0            1 RES     
   17944 C0         897.8408  -936.5504   276.3088 C0            1 RES     
   17945 C0         898.5720  -937.9015   276.2024 C0            1 RES     
   17946 C0         897.7219  -939.0768   276.7250 C0            1 RES     
   17947 C0         898.4159  -940.4169   276.5027 C0            1 RES     
   17948 H6         892.6136  -933.6064   280.1369 H6            1 RES     
   17949 H6         892.9424  -933.0519   281.8030 H6            1 RES     
   17950 H6         895.3852  -933.0653   281.3755 H6            1 RES     
   17951 H6         895.3722  -930.8950   280.5132 H6            1 RES     
   17952 H6         893.9296  -931.0619   281.5190 H6            1 RES     
   17953 H6         894.0936  -930.9408   278.4203 H6            1 RES     
   17954 H6         893.6437  -929.6284   279.5248 H6            1 RES     
   17955 H6         891.9756  -932.1174   278.8655 H6            1 RES     
   17956 H6         891.6919  -930.4626   278.3536 H6            1 RES     
   17957 H6         891.5223  -931.4417   281.2803 H6            1 RES     
   17958 H6         890.1576  -931.1480   280.1618 H6            1 RES     
   17959 H6         892.1473  -929.0012   281.1523 H6            1 RES     
   17960 H6         890.7781  -928.7309   280.0020 H6            1 RES     
   17961 H6         889.1639  -929.4811   281.7669 H6            1 RES     
   17962 H6         890.1653  -928.0865   282.3222 H6            1 RES     
   17963 H6         890.5427  -929.7514   282.9085 H6            1 RES     
   17964 H6         895.9331  -932.4714   278.8496 H6            1 RES     
   17965 H6         894.4660  -933.4226   278.4404 H6            1 RES     
   17966 H6         897.0911  -934.2953   279.8657 H6            1 RES     
   17967 H6         895.6840  -935.3541   279.6173 H6            1 RES     
   17968 H6         895.7738  -935.0627   277.1800 H6            1 RES     
   17969 H6         897.2207  -933.9922   277.3242 H6            1 RES     
   17970 H6         898.5489  -935.8938   278.2774 H6            1 RES     
   17971 H6         897.0817  -936.8987   278.3039 H6            1 RES     
   17972 H6         896.8737  -936.6485   275.7671 H6            1 RES     
   17973 H6         898.4415  -935.7678   275.7951 H6            1 RES     
   17974 H6         899.5429  -937.8546   276.7404 H6            1 RES     
   17975 H6         898.7775  -938.0825   275.1247 H6            1 RES     
   17976 H6         896.7462  -939.0960   276.1906 H6            1 RES     
   17977 H6         897.5347  -938.9733   277.8101 H6            1 RES     
   17978 H6         897.7706  -941.2342   276.8845 H6            1 RES     
   17979 H6         898.5969  -940.5842   275.4193 H6            1 RES     
   17980 H6         899.3854  -940.4433   277.0465 H6            1 RES     
   17981 C0         893.3160  -936.3164   280.5130 C0            1 RES     
   17982 C0         894.4075  -937.4361   280.5720 C0            1 RES     
   17983 C0         894.7155  -937.9728   279.1308 C0            1 RES     
   17984 C0         893.7233  -938.9022   278.3892 C0            1 RES     
   17985 C0         892.3919  -938.2969   277.8995 C0            1 RES     
   17986 C0         892.5134  -937.0600   276.9846 C0            1 RES     
   17987 C0         893.3125  -937.3113   275.6992 C0            1 RES     
   17988 C0         893.3394  -936.0562   274.8291 C0            1 RES     
   17989 C0         894.1251  -938.6674   281.4822 C0            1 RES     
   17990 C0         894.1258  -938.3804   282.9743 C0            1 RES     
   17991 C0         894.0280  -939.6530   283.8166 C0            1 RES     
   17992 C0         894.0860  -939.2874   285.3042 C0            1 RES     
   17993 C0         893.9974  -940.5340   286.1928 C0            1 RES     
   17994 C0         894.1188  -940.2073   287.6911 C0            1 RES     
   17995 C0         892.9773  -939.3191   288.2112 C0            1 RES     
   17996 C0         893.1068  -939.0827   289.7121 C0            1 RES     
   17997 H6         892.3508  -936.8346   280.3774 H6            1 RES     
   17998 H6         893.4585  -935.7716   279.5666 H6            1 RES     
   17999 H6         895.3518  -936.9727   280.9188 H6            1 RES     
   18000 H6         895.6472  -938.5716   279.2278 H6            1 RES     
   18001 H6         894.9426  -937.1332   278.4525 H6            1 RES     
   18002 H6         893.5107  -939.7971   279.0087 H6            1 RES     
   18003 H6         894.2555  -939.2768   277.4884 H6            1 RES     
   18004 H6         891.7507  -938.0463   278.7614 H6            1 RES     
   18005 H6         891.8514  -939.0904   277.3392 H6            1 RES     
   18006 H6         892.9771  -936.2169   277.5260 H6            1 RES     
   18007 H6         891.4821  -936.7482   276.7079 H6            1 RES     
   18008 H6         894.3605  -937.5827   275.9455 H6            1 RES     
   18009 H6         892.8477  -938.1413   275.1248 H6            1 RES     
   18010 H6         892.3068  -935.7621   274.5428 H6            1 RES     
   18011 H6         893.9227  -936.2519   273.9054 H6            1 RES     
   18012 H6         893.8158  -935.2152   275.3782 H6            1 RES     
   18013 H6         894.9467  -939.3989   281.3127 H6            1 RES     
   18014 H6         893.1652  -939.1502   281.1974 H6            1 RES     
   18015 H6         895.0865  -937.8908   283.2302 H6            1 RES     
   18016 H6         893.2592  -937.7426   283.2136 H6            1 RES     
   18017 H6         893.0755  -940.1795   283.5907 H6            1 RES     
   18018 H6         894.8802  -940.3270   283.5734 H6            1 RES     
   18019 H6         895.0429  -938.7595   285.5154 H6            1 RES     
   18020 H6         893.2410  -938.6029   285.5249 H6            1 RES     
   18021 H6         893.0385  -941.0638   286.0032 H6            1 RES     
   18022 H6         894.8324  -941.2191   285.9268 H6            1 RES     
   18023 H6         895.0966  -939.7129   287.8839 H6            1 RES     
   18024 H6         894.1011  -941.1700   288.2475 H6            1 RES     
   18025 H6         892.0012  -939.8102   288.0074 H6            1 RES     
   18026 H6         892.9949  -938.3294   287.7095 H6            1 RES     
   18027 H6         892.2708  -938.4397   290.0596 H6            1 RES     
   18028 H6         893.0650  -940.0481   290.2598 H6            1 RES     
   18029 H6         894.0671  -938.5727   289.9402 H6            1 RES     
   18030 C0         903.3183  -935.8049   289.9116 C0            1 RES     
   18031 C1         901.8492  -936.0766   289.5632 C1            1 RES     
   18032 C1         901.1932  -936.7532   290.5319 C1            1 RES     
   18033 S2         899.5877  -937.0183   290.1481 S2            1 RES     
   18034 C1         899.7302  -936.2099   288.6526 C1            1 RES     
   18035 C1         901.0376  -935.7417   288.4776 C1            1 RES     
   18036 C1         902.1065  -937.0151   291.5846 C1            1 RES     
   18037 C1         903.3400  -936.5247   291.2656 C1            1 RES     
   18038 C1         904.2953  -936.7880   292.2526 C1            1 RES     
   18039 C1         903.7335  -937.5120   293.3355 C1            1 RES     
   18040 S2         902.0683  -937.7698   293.0613 S2            1 RES     
   18041 H3         901.3771  -935.1910   287.6115 H3            1 RES     
   18042 H3         905.3268  -936.4800   292.1702 H3            1 RES     
   18043 N4         904.2786  -938.9113   296.7941 N4            1 RES     
   18044 C1         903.6773  -938.3901   295.6868 C1            1 RES     
   18045 C1         904.4268  -938.0510   294.5363 C1            1 RES     
   18046 C1         905.8116  -938.2935   294.5794 C1            1 RES     
   18047 N4         906.6663  -938.0714   293.5490 N4            1 RES     
   18048 S2         908.1133  -938.5817   294.1636 S2            1 RES     
   18049 N4         907.7364  -939.0858   295.6904 N4            1 RES     
   18050 C1         906.4025  -938.8556   295.7465 C1            1 RES     
   18051 C1         905.6157  -939.1518   296.8513 C1            1 RES     
   18052 H5         902.6082  -938.2302   295.7172 H5            1 RES     
   18053 C0         903.3642  -934.2393   290.0927 C0            1 RES     
   18054 C0         904.5083  -933.3529   290.6994 C0            1 RES     
   18055 C0         903.9078  -931.9734   291.1574 C0            1 RES     
   18056 C0         903.5558  -930.8808   290.1047 C0            1 RES     
   18057 C0         902.4105  -931.1395   289.1037 C0            1 RES     
   18058 C0         901.0475  -931.4948   289.7283 C0            1 RES     
   18059 C0         900.4728  -930.3745   290.6052 C0            1 RES     
   18060 C0         899.0988  -930.7609   291.1484 C0            1 RES     
   18061 C0         905.7353  -933.0548   289.7910 C0            1 RES     
   18062 C0         906.8341  -934.1134   289.7995 C0            1 RES     
   18063 C0         907.9292  -933.7651   288.7746 C0            1 RES     
   18064 C0         909.0253  -934.8405   288.7131 C0            1 RES     
   18065 C0         909.9691  -934.5868   287.5247 C0            1 RES     
   18066 C0         910.9742  -935.7267   287.2760 C0            1 RES     
   18067 C0         910.2890  -937.0304   286.8198 C0            1 RES     
   18068 C0         911.3082  -938.1088   286.4663 C0            1 RES     
   18069 H6         903.0773  -933.8122   289.1215 H6            1 RES     
   18070 H6         902.5254  -934.0637   290.8019 H6            1 RES     
   18071 H6         904.8443  -933.8266   291.6486 H6            1 RES     
   18072 H6         904.6832  -931.5019   291.8023 H6            1 RES     
   18073 H6         903.0355  -932.1384   291.8257 H6            1 RES     
   18074 H6         904.4656  -930.6255   289.5215 H6            1 RES     
   18075 H6         903.2917  -929.9650   290.6750 H6            1 RES     
   18076 H6         902.7059  -931.9242   288.3879 H6            1 RES     
   18077 H6         902.2820  -930.2238   288.4862 H6            1 RES     
   18078 H6         901.1240  -932.4241   290.3222 H6            1 RES     
   18079 H6         900.3368  -931.6876   288.8948 H6            1 RES     
   18080 H6         901.1443  -930.1759   291.4660 H6            1 RES     
   18081 H6         900.3722  -929.4460   290.0024 H6            1 RES     
   18082 H6         898.3910  -930.9498   290.3132 H6            1 RES     
   18083 H6         898.6987  -929.9346   291.7729 H6            1 RES     
   18084 H6         899.1752  -931.6755   291.7746 H6            1 RES     
   18085 H6         906.2542  -932.1423   290.1624 H6            1 RES     
   18086 H6         905.3723  -932.8389   288.7619 H6            1 RES     
   18087 H6         907.2680  -934.2016   290.8194 H6            1 RES     
   18088 H6         906.3958  -935.0654   289.5327 H6            1 RES     
   18089 H6         907.4398  -933.7014   287.7768 H6            1 RES     
   18090 H6         908.3883  -932.7791   289.0057 H6            1 RES     
   18091 H6         909.5958  -934.8754   289.6661 H6            1 RES     
   18092 H6         908.5417  -935.8169   288.5866 H6            1 RES     
   18093 H6         909.3775  -934.4513   286.5920 H6            1 RES     
   18094 H6         910.5259  -933.6429   287.7153 H6            1 RES     
   18095 H6         911.5829  -935.9060   288.1880 H6            1 RES     
   18096 H6         911.6543  -935.3960   286.4608 H6            1 RES     
   18097 H6         909.6680  -936.8280   285.9190 H6            1 RES     
   18098 H6         909.6402  -937.4329   287.6199 H6            1 RES     
   18099 H6         910.7766  -939.0249   286.1372 H6            1 RES     
   18100 H6         911.9661  -937.7639   285.6401 H6            1 RES     
   18101 H6         911.9306  -938.3561   287.3539 H6            1 RES     
   18102 C0         904.1754  -936.3825   288.7135 C0            1 RES     
   18103 C0         905.3702  -937.3827   288.8588 C0            1 RES     
   18104 C0         906.3787  -937.2025   287.6712 C0            1 RES     
   18105 C0         906.0476  -937.7185   286.2491 C0            1 RES     
   18106 C0         904.9485  -936.9877   285.4511 C0            1 RES     
   18107 C0         905.1490  -935.4683   285.2692 C0            1 RES     
   18108 C0         906.4526  -935.0929   284.5525 C0            1 RES     
   18109 C0         906.5472  -933.5797   284.3668 C0            1 RES     
   18110 C0         905.0296  -938.8986   288.9610 C0            1 RES     
   18111 C0         904.3286  -939.3174   290.2423 C0            1 RES     
   18112 C0         904.1880  -940.8352   290.3651 C0            1 RES     
   18113 C0         903.5202  -941.1806   291.7010 C0            1 RES     
   18114 C0         903.3619  -942.6959   291.8746 C0            1 RES     
   18115 C0         902.7541  -943.0794   293.2347 C0            1 RES     
   18116 C0         901.3249  -942.5486   293.4301 C0            1 RES     
   18117 C0         900.7447  -943.0137   294.7615 C0            1 RES     
   18118 H6         903.5130  -936.8053   287.9384 H6            1 RES     
   18119 H6         904.5723  -935.4656   288.2504 H6            1 RES     
   18120 H6         905.9377  -937.1047   289.7684 H6            1 RES     
   18121 H6         907.2938  -937.7590   287.9694 H6            1 RES     
   18122 H6         906.6655  -936.1419   287.5731 H6            1 RES     
   18123 H6         905.8116  -938.8014   286.2868 H6            1 RES     
   18124 H6         906.9840  -937.6330   285.6568 H6            1 RES     
   18125 H6         903.9628  -937.1686   285.9122 H6            1 RES     
   18126 H6         904.9028  -937.4542   284.4431 H6            1 RES     
   18127 H6         905.1239  -934.9509   286.2441 H6            1 RES     
   18128 H6         904.2914  -935.0888   284.6711 H6            1 RES     
   18129 H6         907.3281  -935.4224   285.1504 H6            1 RES     
   18130 H6         906.4877  -935.5839   283.5562 H6            1 RES     
   18131 H6         905.6967  -933.2117   283.7536 H6            1 RES     
   18132 H6         907.4955  -933.3232   283.8503 H6            1 RES     
   18133 H6         906.5304  -933.0674   285.3531 H6            1 RES     
   18134 H6         905.9933  -939.4554   288.9454 H6            1 RES     
   18135 H6         904.4268  -939.2222   288.0850 H6            1 RES     
   18136 H6         904.9429  -938.9746   291.0987 H6            1 RES     
   18137 H6         903.3183  -938.8767   290.2546 H6            1 RES     
   18138 H6         903.5770  -941.2242   289.5220 H6            1 RES     
   18139 H6         905.1960  -941.3067   290.3287 H6            1 RES     
   18140 H6         904.1411  -940.7835   292.5351 H6            1 RES     
   18141 H6         902.5256  -940.6893   291.7272 H6            1 RES     
   18142 H6         902.7305  -943.1045   291.0557 H6            1 RES     
   18143 H6         904.3671  -943.1674   291.8077 H6            1 RES     
   18144 H6         903.4090  -942.7034   294.0516 H6            1 RES     
   18145 H6         902.7312  -944.1897   293.2916 H6            1 RES     
   18146 H6         900.6754  -942.9167   292.6066 H6            1 RES     
   18147 H6         901.3182  -941.4389   293.4266 H6            1 RES     
   18148 H6         899.7140  -942.6165   294.8756 H6            1 RES     
   18149 H6         900.7051  -944.1230   294.7988 H6            1 RES     
   18150 H6         901.3656  -942.6402   295.6037 H6            1 RES     
   18151 C0         908.8022  -939.9481   301.1442 C0            1 RES     
   18152 C1         907.7312  -940.0664   300.0522 C1            1 RES     
   18153 C1         906.9076  -941.1227   300.2325 C1            1 RES     
   18154 S2         905.7309  -941.2222   299.0490 S2            1 RES     
   18155 C1         906.2982  -939.8219   298.2567 C1            1 RES     
   18156 C1         907.4034  -939.2955   298.9352 C1            1 RES     
   18157 C1         907.3208  -941.8114   301.4011 C1            1 RES     
   18158 C1         908.4174  -941.2017   301.9394 C1            1 RES     
   18159 C1         908.8955  -941.8610   303.0765 C1            1 RES     
   18160 C1         908.1171  -943.0091   303.3738 C1            1 RES     
   18161 S2         906.8399  -943.1530   302.2501 S2            1 RES     
   18162 H3         907.9369  -938.4050   298.6331 H3            1 RES     
   18163 H3         909.7584  -941.5256   303.6318 H3            1 RES     
   18164 N4         907.4575  -945.8083   305.8124 N4            1 RES     
   18165 C1         907.2784  -944.8565   304.8525 C1            1 RES     
   18166 C1         908.3410  -944.0168   304.4450 C1            1 RES     
   18167 C1         909.5902  -944.2209   305.0584 C1            1 RES     
   18168 N4         910.7216  -943.5374   304.7511 N4            1 RES     
   18169 S2         911.8461  -944.2373   305.7398 S2            1 RES     
   18170 N4         910.9884  -945.3858   306.5600 N4            1 RES     
   18171 C1         909.7445  -945.2363   306.0443 C1            1 RES     
   18172 C1         908.6585  -946.0180   306.4145 C1            1 RES     
   18173 H5         906.2935  -944.7521   304.4183 H5            1 RES     
   18174 C0         908.3933  -938.6331   301.9118 C0            1 RES     
   18175 C0         908.9246  -938.0909   303.2854 C0            1 RES     
   18176 C0         907.8776  -937.0818   303.8844 C0            1 RES     
   18177 C0         907.7573  -935.6396   303.3087 C0            1 RES     
   18178 C0         907.2432  -935.4438   301.8672 C0            1 RES     
   18179 C0         905.8717  -936.0741   301.5577 C0            1 RES     
   18180 C0         904.7310  -935.4849   302.3980 C0            1 RES     
   18181 C0         903.3919  -936.1064   302.0074 C0            1 RES     
   18182 C0         910.3113  -937.3863   303.2841 C0            1 RES     
   18183 C0         911.5193  -938.3091   303.4169 C0            1 RES     
   18184 C0         912.8284  -937.5100   303.2794 C0            1 RES     
   18185 C0         914.0677  -938.4160   303.3495 C0            1 RES     
   18186 C0         915.3364  -937.6309   302.9738 C0            1 RES     
   18187 C0         916.5911  -938.5119   302.8280 C0            1 RES     
   18188 C0         916.4960  -939.4836   301.6347 C0            1 RES     
   18189 C0         917.7928  -940.2620   301.4372 C0            1 RES     
   18190 H6         908.4535  -937.8197   301.1752 H6            1 RES     
   18191 H6         907.3177  -938.8163   302.1282 H6            1 RES     
   18192 H6         908.9277  -938.9349   304.0107 H6            1 RES     
   18193 H6         908.1692  -936.9353   304.9488 H6            1 RES     
   18194 H6         906.8710  -937.5510   303.9211 H6            1 RES     
   18195 H6         908.7390  -935.1275   303.3918 H6            1 RES     
   18196 H6         907.0668  -935.0870   303.9806 H6            1 RES     
   18197 H6         907.9916  -935.8130   301.1468 H6            1 RES     
   18198 H6         907.1754  -934.3510   301.6732 H6            1 RES     
   18199 H6         905.9073  -937.1695   301.7026 H6            1 RES     
   18200 H6         905.6505  -935.8853   300.4842 H6            1 RES     
   18201 H6         904.9050  -935.6817   303.4761 H6            1 RES     
   18202 H6         904.6784  -934.3867   302.2341 H6            1 RES     
   18203 H6         903.1730  -935.9133   300.9354 H6            1 RES     
   18204 H6         902.5808  -935.6611   302.6211 H6            1 RES     
   18205 H6         903.4101  -937.2033   302.1832 H6            1 RES     
   18206 H6         910.3901  -936.7289   304.1793 H6            1 RES     
   18207 H6         910.3797  -936.7368   302.3836 H6            1 RES     
   18208 H6         911.4863  -938.8390   304.3938 H6            1 RES     
   18209 H6         911.4760  -939.0472   302.6277 H6            1 RES     
   18210 H6         912.8093  -937.0132   302.2835 H6            1 RES     
   18211 H6         912.8970  -936.7249   304.0637 H6            1 RES     
   18212 H6         914.1698  -938.8651   304.3608 H6            1 RES     
   18213 H6         913.9310  -939.2404   302.6389 H6            1 RES     
   18214 H6         915.1834  -937.1019   302.0069 H6            1 RES     
   18215 H6         915.5177  -936.8628   303.7577 H6            1 RES     
   18216 H6         916.7783  -939.0702   303.7700 H6            1 RES     
   18217 H6         917.4527  -937.8329   302.6465 H6            1 RES     
   18218 H6         916.2878  -938.9100   300.7043 H6            1 RES     
   18219 H6         915.6852  -940.2191   301.7918 H6            1 RES     
   18220 H6         917.6859  -940.9422   300.5676 H6            1 RES     
   18221 H6         918.6364  -939.5659   301.2417 H6            1 RES     
   18222 H6         918.0185  -940.8697   302.3406 H6            1 RES     
   18223 C0         910.1969  -939.9019   300.3984 C0            1 RES     
   18224 C0         911.4168  -940.8321   300.7076 C0            1 RES     
   18225 C0         912.7592  -940.1114   300.3357 C0            1 RES     
   18226 C0         913.1964  -939.9359   298.8604 C0            1 RES     
   18227 C0         912.4012  -938.9486   297.9819 C0            1 RES     
   18228 C0         912.2925  -937.5070   298.5222 C0            1 RES     
   18229 C0         913.6464  -936.8184   298.7383 C0            1 RES     
   18230 C0         913.4483  -935.3831   299.2217 C0            1 RES     
   18231 C0         911.4362  -942.2376   300.0381 C0            1 RES     
   18232 C0         910.3793  -943.2065   300.5411 C0            1 RES     
   18233 C0         910.5651  -944.6185   299.9841 C0            1 RES     
   18234 C0         909.4966  -945.5458   300.5743 C0            1 RES     
   18235 C0         909.6447  -946.9791   300.0495 C0            1 RES     
   18236 C0         908.6275  -947.9498   300.6732 C0            1 RES     
   18237 C0         907.1698  -947.5976   300.3365 C0            1 RES     
   18238 C0         906.2081  -948.6276   300.9196 C0            1 RES     
   18239 H6         910.0478  -939.9434   299.3055 H6            1 RES     
   18240 H6         910.5224  -938.8658   300.5814 H6            1 RES     
   18241 H6         911.4604  -940.9825   301.8040 H6            1 RES     
   18242 H6         913.5644  -940.7215   300.7999 H6            1 RES     
   18243 H6         912.7993  -939.1148   300.8068 H6            1 RES     
   18244 H6         913.2315  -940.9239   298.3580 H6            1 RES     
   18245 H6         914.2456  -939.5704   298.8839 H6            1 RES     
   18246 H6         911.3873  -939.3409   297.7948 H6            1 RES     
   18247 H6         912.9001  -938.9097   296.9893 H6            1 RES     
   18248 H6         911.7337  -937.4870   299.4741 H6            1 RES     
   18249 H6         911.7069  -936.9177   297.7825 H6            1 RES     
   18250 H6         914.2358  -937.3626   299.5058 H6            1 RES     
   18251 H6         914.2168  -936.8049   297.7846 H6            1 RES     
   18252 H6         912.8781  -934.7971   298.4692 H6            1 RES     
   18253 H6         914.4350  -934.8992   299.3763 H6            1 RES     
   18254 H6         912.8931  -935.3726   300.1846 H6            1 RES     
   18255 H6         912.4170  -942.7051   300.2797 H6            1 RES     
   18256 H6         911.3583  -942.1439   298.9333 H6            1 RES     
   18257 H6         910.4709  -943.2741   301.6434 H6            1 RES     
   18258 H6         909.3867  -942.8422   300.2294 H6            1 RES     
   18259 H6         910.4817  -944.5981   298.8759 H6            1 RES     
   18260 H6         911.5732  -944.9995   300.2637 H6            1 RES     
   18261 H6         909.5905  -945.5548   301.6834 H6            1 RES     
   18262 H6         908.4998  -945.1424   300.3007 H6            1 RES     
   18263 H6         909.5379  -946.9874   298.9429 H6            1 RES     
   18264 H6         910.6634  -947.3463   300.3040 H6            1 RES     
   18265 H6         908.7635  -947.9691   301.7772 H6            1 RES     
   18266 H6         908.8472  -948.9661   300.2789 H6            1 RES     
   18267 H6         907.0394  -947.5683   299.2330 H6            1 RES     
   18268 H6         906.9016  -946.6068   300.7580 H6            1 RES     
   18269 H6         905.1648  -948.3486   300.6611 H6            1 RES     
   18270 H6         906.4214  -949.6345   300.5021 H6            1 RES     
   18271 H6         906.3042  -948.6612   302.0259 H6            1 RES     
   18272 C0         909.8091  -948.5965   311.0236 C0            1 RES     
   18273 C1         909.3651  -948.2326   309.6009 C1            1 RES     
   18274 C1         908.8202  -949.2748   308.9350 C1            1 RES     
   18275 S2         908.3182  -948.8552   307.3964 S2            1 RES     
   18276 C1         908.8174  -947.2354   307.5903 C1            1 RES     
   18277 C1         909.3698  -947.0477   308.8626 C1            1 RES     
   18278 C1         908.8487  -950.4079   309.7871 C1            1 RES     
   18279 C1         909.4333  -950.0826   310.9772 C1            1 RES     
   18280 C1         909.5249  -951.1738   311.8474 C1            1 RES     
   18281 C1         908.9915  -952.3496   311.2599 C1            1 RES     
   18282 S2         908.3870  -951.9989   309.7023 S2            1 RES     
   18283 H3         909.7525  -946.1049   309.2280 H3            1 RES     
   18284 H3         909.9633  -951.1061   312.8317 H3            1 RES     
   18285 N4         908.0453  -955.9632   311.7734 N4            1 RES     
   18286 C1         908.0702  -954.6846   311.3002 C1            1 RES     
   18287 C1         908.9719  -953.7274   311.8206 C1            1 RES     
   18288 C1         909.8514  -954.1582   312.8303 C1            1 RES     
   18289 N4         910.8078  -953.3840   313.4025 N4            1 RES     
   18290 S2         911.5368  -954.4295   314.4548 S2            1 RES     
   18291 N4         910.7122  -955.8440   314.2388 N4            1 RES     
   18292 C1         909.8089  -955.5059   313.2873 C1            1 RES     
   18293 C1         908.8887  -956.3951   312.7485 C1            1 RES     
   18294 H5         907.3691  -954.4177   310.5212 H5            1 RES     
   18295 C0         908.8134  -947.7805   311.9337 C0            1 RES     
   18296 C0         908.5655  -947.9061   313.4783 C0            1 RES     
   18297 C0         907.1567  -947.3011   313.8282 C0            1 RES     
   18298 C0         906.9532  -945.7575   313.8739 C0            1 RES     
   18299 C0         907.0695  -944.9429   312.5688 C0            1 RES     
   18300 C0         906.1525  -945.3962   311.4165 C0            1 RES     
   18301 C0         904.6592  -945.2769   311.7483 C0            1 RES     
   18302 C0         903.8028  -945.6850   310.5516 C0            1 RES     
   18303 C0         909.6101  -947.2456   314.4228 C0            1 RES     
   18304 C0         910.8285  -948.1008   314.7585 C0            1 RES     
   18305 C0         911.8405  -947.2963   315.5948 C0            1 RES     
   18306 C0         913.1088  -948.1075   315.9030 C0            1 RES     
   18307 C0         914.1902  -947.2086   316.5275 C0            1 RES     
   18308 C0         915.5576  -947.8995   316.6834 C0            1 RES     
   18309 C0         916.2121  -948.2285   315.3267 C0            1 RES     
   18310 C0         917.6140  -948.8037   315.5021 C0            1 RES     
   18311 H6         908.9854  -946.7207   311.6987 H6            1 RES     
   18312 H6         907.8254  -948.0662   311.5101 H6            1 RES     
   18313 H6         908.4609  -948.9865   313.7235 H6            1 RES     
   18314 H6         906.9247  -947.6451   314.8613 H6            1 RES     
   18315 H6         906.3732  -947.7590   313.1869 H6            1 RES     
   18316 H6         907.6539  -945.3161   314.6136 H6            1 RES     
   18317 H6         905.9333  -945.5844   314.2783 H6            1 RES     
   18318 H6         908.1170  -944.9293   312.2252 H6            1 RES     
   18319 H6         906.8329  -943.8824   312.8049 H6            1 RES     
   18320 H6         906.3824  -946.4377   311.1254 H6            1 RES     
   18321 H6         906.3702  -944.7475   310.5398 H6            1 RES     
   18322 H6         904.4002  -945.9360   312.6027 H6            1 RES     
   18323 H6         904.4218  -944.2248   312.0174 H6            1 RES     
   18324 H6         904.0208  -945.0331   309.6788 H6            1 RES     
   18325 H6         902.7278  -945.5840   310.8104 H6            1 RES     
   18326 H6         904.0048  -946.7421   310.2757 H6            1 RES     
   18327 H6         909.1426  -947.0624   315.4166 H6            1 RES     
   18328 H6         909.8978  -946.2577   314.0001 H6            1 RES     
   18329 H6         910.5108  -949.0158   315.3045 H6            1 RES     
   18330 H6         911.3011  -948.4031   313.8339 H6            1 RES     
   18331 H6         912.1286  -946.4034   314.9958 H6            1 RES     
   18332 H6         911.3809  -946.9494   316.5459 H6            1 RES     
   18333 H6         912.8755  -948.9629   316.5729 H6            1 RES     
   18334 H6         913.4870  -948.5244   314.9615 H6            1 RES     
   18335 H6         914.3412  -946.3032   315.8986 H6            1 RES     
   18336 H6         913.8332  -946.8741   317.5265 H6            1 RES     
   18337 H6         915.4539  -948.8191   317.2982 H6            1 RES     
   18338 H6         916.2261  -947.1924   317.2215 H6            1 RES     
   18339 H6         916.2889  -947.3011   314.7168 H6            1 RES     
   18340 H6         915.6119  -948.9739   314.7724 H6            1 RES     
   18341 H6         918.0514  -949.0194   314.5059 H6            1 RES     
   18342 H6         918.2685  -948.0753   316.0270 H6            1 RES     
   18343 H6         917.5721  -949.7488   316.0862 H6            1 RES     
   18344 C0         911.3333  -948.1862   311.1343 C0            1 RES     
   18345 C0         912.4888  -949.1276   311.6112 C0            1 RES     
   18346 C0         913.6482  -948.2861   312.2497 C0            1 RES     
   18347 C0         914.6148  -947.4525   311.3726 C0            1 RES     
   18348 C0         914.0583  -946.1932   310.6775 C0            1 RES     
   18349 C0         913.3914  -945.1546   311.6040 C0            1 RES     
   18350 C0         914.3188  -944.6075   312.6969 C0            1 RES     
   18351 C0         913.5993  -943.5508   313.5329 C0            1 RES     
   18352 C0         913.1240  -950.0776   310.5539 C0            1 RES     
   18353 C0         912.2174  -951.1930   310.0613 C0            1 RES     
   18354 C0         912.9519  -952.1959   309.1706 C0            1 RES     
   18355 C0         911.9882  -953.3140   308.7569 C0            1 RES     
   18356 C0         912.6811  -954.3513   307.8649 C0            1 RES     
   18357 C0         911.7583  -955.5221   307.4856 C0            1 RES     
   18358 C0         910.5440  -955.0890   306.6487 C0            1 RES     
   18359 C0         909.7011  -956.2930   306.2418 C0            1 RES     
   18360 H6         911.6768  -947.7325   310.1885 H6            1 RES     
   18361 H6         911.2936  -947.3377   311.8353 H6            1 RES     
   18362 H6         912.0972  -949.7565   312.4345 H6            1 RES     
   18363 H6         914.2996  -949.0216   312.7700 H6            1 RES     
   18364 H6         913.2464  -947.6097   313.0228 H6            1 RES     
   18365 H6         915.0936  -948.1055   310.6149 H6            1 RES     
   18366 H6         915.4346  -947.1134   312.0418 H6            1 RES     
   18367 H6         913.3453  -946.4815   309.8868 H6            1 RES     
   18368 H6         914.9064  -945.6983   310.1563 H6            1 RES     
   18369 H6         912.4943  -945.5800   312.0868 H6            1 RES     
   18370 H6         913.0538  -944.3081   310.9663 H6            1 RES     
   18371 H6         914.6371  -945.4263   313.3757 H6            1 RES     
   18372 H6         915.2187  -944.1511   312.2313 H6            1 RES     
   18373 H6         913.2813  -942.7011   312.8914 H6            1 RES     
   18374 H6         914.2807  -943.1668   314.3203 H6            1 RES     
   18375 H6         912.7029  -943.9896   314.0224 H6            1 RES     
   18376 H6         913.9895  -950.5812   311.0399 H6            1 RES     
   18377 H6         913.5028  -949.4962   309.6855 H6            1 RES     
   18378 H6         911.8456  -951.7497   310.9444 H6            1 RES     
   18379 H6         911.3960  -950.7499   309.4749 H6            1 RES     
   18380 H6         913.3446  -951.6785   308.2686 H6            1 RES     
   18381 H6         913.8044  -952.6390   309.7331 H6            1 RES     
   18382 H6         911.6015  -953.8214   309.6690 H6            1 RES     
   18383 H6         911.1376  -952.8533   308.2133 H6            1 RES     
   18384 H6         913.0596  -953.8607   306.9418 H6            1 RES     
   18385 H6         913.5503  -954.7705   308.4181 H6            1 RES     
   18386 H6         911.4130  -956.0354   308.4103 H6            1 RES     
   18387 H6         912.3593  -956.2449   306.8915 H6            1 RES     
   18388 H6         910.8917  -954.5668   305.7311 H6            1 RES     
   18389 H6         909.8953  -954.4023   307.2309 H6            1 RES     
   18390 H6         908.8331  -955.9512   305.6395 H6            1 RES     
   18391 H6         910.3040  -956.9971   305.6300 H6            1 RES     
   18392 H6         909.3234  -956.8210   307.1433 H6            1 RES     
   18393 C0         908.5500  -960.7521   315.9294 C0            1 RES     
   18394 C1         908.6797  -959.7945   314.7380 C1            1 RES     
   18395 C1         908.7340  -960.4350   313.5492 C1            1 RES     
   18396 S2         908.8489  -959.3765   312.2600 S2            1 RES     
   18397 C1         908.8177  -958.0086   313.2790 C1            1 RES     
   18398 C1         908.7155  -958.4039   314.6177 C1            1 RES     
   18399 C1         908.6665  -961.8299   313.7947 C1            1 RES     
   18400 C1         908.5946  -962.0648   315.1377 C1            1 RES     
   18401 C1         908.5646  -963.4291   315.4443 C1            1 RES     
   18402 C1         908.6275  -964.2240   314.2711 C1            1 RES     
   18403 S2         908.6773  -963.2207   312.8907 S2            1 RES     
   18404 H3         908.6707  -957.7198   315.4536 H3            1 RES     
   18405 H3         908.5136  -963.8038   316.4556 H3            1 RES     
   18406 N4         908.4417  -967.6998   312.8215 N4            1 RES     
   18407 C1         908.3604  -966.3452   312.9551 C1            1 RES     
   18408 C1         908.6998  -965.7065   314.1704 C1            1 RES     
   18409 C1         909.1419  -966.5271   315.2239 C1            1 RES     
   18410 N4         909.5505  -966.0737   316.4359 N4            1 RES     
   18411 S2         909.9891  -967.4651   317.2128 S2            1 RES     
   18412 N4         909.6967  -968.6474   316.0974 N4            1 RES     
   18413 C1         909.2311  -967.9364   315.0424 C1            1 RES     
   18414 C1         908.8672  -968.5065   313.8299 C1            1 RES     
   18415 H5         908.0153  -965.7710   312.1062 H5            1 RES     
   18416 C0         907.0998  -960.4588   316.4739 C0            1 RES     
   18417 C0         906.2573  -961.2749   317.5166 C0            1 RES     
   18418 C0         904.7342  -960.9258   317.3395 C0            1 RES     
   18419 C0         904.1701  -959.5749   317.8713 C0            1 RES     
   18420 C0         904.6321  -958.2557   317.2180 C0            1 RES     
   18421 C0         904.4280  -958.1598   315.6938 C0            1 RES     
   18422 C0         902.9541  -958.2375   315.2743 C0            1 RES     
   18423 C0         902.8110  -958.0798   313.7621 C0            1 RES     
   18424 C0         906.6120  -961.0893   319.0197 C0            1 RES     
   18425 C0         907.7371  -961.9758   319.5456 C0            1 RES     
   18426 C0         908.0750  -961.6135   321.0035 C0            1 RES     
   18427 C0         909.2450  -962.4472   321.5490 C0            1 RES     
   18428 C0         909.7110  -961.9034   322.9109 C0            1 RES     
   18429 C0         911.0036  -962.5588   323.4315 C0            1 RES     
   18430 C0         912.2296  -962.2237   322.5586 C0            1 RES     
   18431 C0         913.5166  -962.7838   323.1559 C0            1 RES     
   18432 H6         907.0979  -959.4037   316.7815 H6            1 RES     
   18433 H6         906.4844  -960.5446   315.5513 H6            1 RES     
   18434 H6         906.3186  -962.3515   317.2418 H6            1 RES     
   18435 H6         904.1746  -961.7050   317.9045 H6            1 RES     
   18436 H6         904.4308  -961.0621   316.2792 H6            1 RES     
   18437 H6         904.3633  -959.4998   318.9621 H6            1 RES     
   18438 H6         903.0663  -959.6267   317.7595 H6            1 RES     
   18439 H6         905.6899  -958.0643   317.4629 H6            1 RES     
   18440 H6         904.0732  -957.4223   317.6969 H6            1 RES     
   18441 H6         905.0000  -958.9515   315.1758 H6            1 RES     
   18442 H6         904.8362  -957.1800   315.3618 H6            1 RES     
   18443 H6         902.5218  -959.2175   315.5646 H6            1 RES     
   18444 H6         902.3824  -957.4265   315.7754 H6            1 RES     
   18445 H6         903.2171  -957.0989   313.4346 H6            1 RES     
   18446 H6         901.7379  -958.1314   313.4815 H6            1 RES     
   18447 H6         903.3559  -958.8930   313.2364 H6            1 RES     
   18448 H6         905.7381  -961.3860   319.6426 H6            1 RES     
   18449 H6         906.8080  -960.0107   319.2086 H6            1 RES     
   18450 H6         907.4453  -963.0457   319.4669 H6            1 RES     
   18451 H6         908.6144  -961.8164   318.9336 H6            1 RES     
   18452 H6         908.3688  -960.5399   321.0177 H6            1 RES     
   18453 H6         907.1872  -961.7448   321.6598 H6            1 RES     
   18454 H6         908.9601  -963.5181   321.6314 H6            1 RES     
   18455 H6         910.0743  -962.3845   320.8337 H6            1 RES     
   18456 H6         909.8948  -960.8083   322.8399 H6            1 RES     
   18457 H6         908.8954  -962.0651   323.6498 H6            1 RES     
   18458 H6         910.8706  -963.6590   323.5090 H6            1 RES     
   18459 H6         911.1911  -962.1563   324.4510 H6            1 RES     
   18460 H6         912.3353  -961.1192   322.4749 H6            1 RES     
   18461 H6         912.1178  -962.6513   321.5449 H6            1 RES     
   18462 H6         914.3730  -962.5157   322.5040 H6            1 RES     
   18463 H6         913.6924  -962.3568   324.1665 H6            1 RES     
   18464 H6         913.4566  -963.8917   323.2295 H6            1 RES     
   18465 C0         909.7371  -960.4015   316.9152 C0            1 RES     
   18466 C0         910.7679  -961.4302   317.4881 C0            1 RES     
   18467 C0         911.3097  -960.9422   318.8767 C0            1 RES     
   18468 C0         912.3284  -959.7802   318.9797 C0            1 RES     
   18469 C0         911.8381  -958.3557   318.6494 C0            1 RES     
   18470 C0         910.6152  -957.8639   319.4522 C0            1 RES     
   18471 C0         910.8314  -957.8491   320.9711 C0            1 RES     
   18472 C0         909.5967  -957.3014   321.6843 C0            1 RES     
   18473 C0         911.9976  -961.7846   316.6014 C0            1 RES     
   18474 C0         911.6797  -962.5771   315.3446 C0            1 RES     
   18475 C0         912.9379  -963.0517   314.6163 C0            1 RES     
   18476 C0         912.5375  -963.8836   313.3926 C0            1 RES     
   18477 C0         913.7680  -964.3893   312.6300 C0            1 RES     
   18478 C0         913.4011  -965.2828   311.4328 C0            1 RES     
   18479 C0         912.5926  -964.5459   310.3530 C0            1 RES     
   18480 C0         912.3152  -965.4546   309.1602 C0            1 RES     
   18481 H6         910.3309  -959.5614   316.5152 H6            1 RES     
   18482 H6         909.2032  -959.9629   317.7728 H6            1 RES     
   18483 H6         910.2257  -962.3722   317.7012 H6            1 RES     
   18484 H6         911.8327  -961.8184   319.3180 H6            1 RES     
   18485 H6         910.4697  -960.6978   319.5485 H6            1 RES     
   18486 H6         913.2236  -960.0089   318.3665 H6            1 RES     
   18487 H6         912.6799  -959.7617   320.0338 H6            1 RES     
   18488 H6         911.6193  -958.2715   317.5715 H6            1 RES     
   18489 H6         912.6826  -957.6594   318.8435 H6            1 RES     
   18490 H6         909.7276  -958.4820   319.2309 H6            1 RES     
   18491 H6         910.3898  -956.8285   319.1141 H6            1 RES     
   18492 H6         911.0159  -958.8789   321.3427 H6            1 RES     
   18493 H6         911.7068  -957.2111   321.2191 H6            1 RES     
   18494 H6         909.3893  -956.2609   321.3541 H6            1 RES     
   18495 H6         909.7665  -957.2995   322.7811 H6            1 RES     
   18496 H6         908.7101  -957.9345   321.4636 H6            1 RES     
   18497 H6         912.6670  -962.4337   317.2092 H6            1 RES     
   18498 H6         912.5589  -960.8649   316.3284 H6            1 RES     
   18499 H6         911.1122  -963.4813   315.6420 H6            1 RES     
   18500 H6         911.1058  -961.9356   314.6560 H6            1 RES     
   18501 H6         913.5410  -962.1736   314.2991 H6            1 RES     
   18502 H6         913.5493  -963.6818   315.3012 H6            1 RES     
   18503 H6         911.9330  -964.7573   313.7246 H6            1 RES     
   18504 H6         911.9156  -963.2465   312.7303 H6            1 RES     
   18505 H6         914.3740  -963.5258   312.2789 H6            1 RES     
   18506 H6         914.3922  -964.9934   313.3248 H6            1 RES     
   18507 H6         912.8289  -966.1665   311.7924 H6            1 RES     
   18508 H6         914.3502  -965.6448   310.9803 H6            1 RES     
   18509 H6         913.1618  -963.6575   310.0035 H6            1 RES     
   18510 H6         911.6154  -964.2117   310.7590 H6            1 RES     
   18511 H6         911.7312  -964.8973   308.3976 H6            1 RES     
   18512 H6         913.2690  -965.7920   308.7020 H6            1 RES     
   18513 H6         911.7279  -966.3418   309.4803 H6            1 RES     
   18514 C0         908.2565  -973.8375   314.4813 C0            1 RES     
   18515 C1         908.6479  -972.4419   313.9787 C1            1 RES     
   18516 C1         909.3524  -972.4742   312.8258 C1            1 RES     
   18517 S2         909.7485  -970.9449   312.2784 S2            1 RES     
   18518 C1         908.9635  -970.1867   313.5896 C1            1 RES     
   18519 C1         908.3998  -971.1469   314.4377 C1            1 RES     
   18520 C1         909.5206  -973.8306   312.4480 C1            1 RES     
   18521 C1         908.9435  -974.6489   313.3760 C1            1 RES     
   18522 C1         909.1114  -976.0047   313.0762 C1            1 RES     
   18523 C1         909.8534  -976.1815   311.8802 C1            1 RES     
   18524 S2         910.2445  -974.6616   311.2082 S2            1 RES     
   18525 H3         907.8431  -970.9160   315.3352 H3            1 RES     
   18526 H3         908.7266  -976.7973   313.7002 H3            1 RES     
   18527 N4         911.1327  -978.6293   309.3134 N4            1 RES     
   18528 C1         910.6830  -977.4838   309.9007 C1            1 RES     
   18529 C1         910.3117  -977.4561   311.2650 C1            1 RES     
   18530 C1         910.4457  -978.6540   311.9900 C1            1 RES     
   18531 N4         910.1804  -978.7885   313.3139 N4            1 RES     
   18532 S2         910.5644  -980.3704   313.6003 S2            1 RES     
   18533 N4         911.0635  -980.9269   312.1277 N4            1 RES     
   18534 C1         910.9357  -979.8265   311.3478 C1            1 RES     
   18535 C1         911.2681  -979.7949   310.0002 C1            1 RES     
   18536 H5         910.6053  -976.5958   309.2884 H5            1 RES     
   18537 C0         906.6886  -973.8553   314.3165 C0            1 RES     
   18538 C0         905.7038  -975.0737   314.4105 C0            1 RES     
   18539 C0         904.3654  -974.7171   313.6657 C0            1 RES     
   18540 C0         903.3257  -973.7659   314.3293 C0            1 RES     
   18541 C0         903.6932  -972.2838   314.5499 C0            1 RES     
   18542 C0         904.1391  -971.5137   313.2920 C0            1 RES     
   18543 C0         903.0481  -971.4269   312.2166 C0            1 RES     
   18544 C0         903.5276  -970.6057   311.0217 C0            1 RES     
   18545 C0         905.3314  -975.5798   315.8334 C0            1 RES     
   18546 C0         906.3018  -976.5823   316.4511 C0            1 RES     
   18547 C0         905.8920  -976.9109   317.8985 C0            1 RES     
   18548 C0         906.8807  -977.8742   318.5738 C0            1 RES     
   18549 C0         906.5803  -977.9945   320.0780 C0            1 RES     
   18550 C0         907.6444  -978.7847   320.8621 C0            1 RES     
   18551 C0         909.0064  -978.0633   320.9024 C0            1 RES     
   18552 C0         910.0104  -978.8034   321.7806 C0            1 RES     
   18553 H6         906.3056  -973.0537   314.9635 H6            1 RES     
   18554 H6         906.5630  -973.5286   313.2607 H6            1 RES     
   18555 H6         906.1300  -975.9079   313.8098 H6            1 RES     
   18556 H6         903.8218  -975.6802   313.5367 H6            1 RES     
   18557 H6         904.5829  -974.3661   312.6341 H6            1 RES     
   18558 H6         903.0135  -974.1879   315.3078 H6            1 RES     
   18559 H6         902.4211  -973.7868   313.6852 H6            1 RES     
   18560 H6         904.4678  -972.1997   315.3298 H6            1 RES     
   18561 H6         902.8034  -971.7700   314.9750 H6            1 RES     
   18562 H6         905.0470  -971.9723   312.8586 H6            1 RES     
   18563 H6         904.4038  -970.4806   313.6076 H6            1 RES     
   18564 H6         902.7800  -972.4418   311.8566 H6            1 RES     
   18565 H6         902.1431  -970.9435   312.6443 H6            1 RES     
   18566 H6         903.7882  -969.5737   311.3402 H6            1 RES     
   18567 H6         902.7215  -970.5493   310.2602 H6            1 RES     
   18568 H6         904.4201  -971.0806   310.5609 H6            1 RES     
   18569 H6         904.3740  -976.1460   315.7829 H6            1 RES     
   18570 H6         905.1661  -974.6990   316.4925 H6            1 RES     
   18571 H6         906.3346  -977.5074   315.8352 H6            1 RES     
   18572 H6         907.2902  -976.1434   316.4588 H6            1 RES     
   18573 H6         905.8875  -975.9534   318.4662 H6            1 RES     
   18574 H6         904.8689  -977.3450   317.9312 H6            1 RES     
   18575 H6         906.8513  -978.8728   318.0872 H6            1 RES     
   18576 H6         907.8940  -977.4759   318.4398 H6            1 RES     
   18577 H6         906.5108  -976.9818   320.5337 H6            1 RES     
   18578 H6         905.5926  -978.4914   320.1990 H6            1 RES     
   18579 H6         907.7569  -979.8038   320.4342 H6            1 RES     
   18580 H6         907.2797  -978.8826   321.9080 H6            1 RES     
   18581 H6         908.8717  -977.0382   321.3137 H6            1 RES     
   18582 H6         909.4407  -977.9887   319.8881 H6            1 RES     
   18583 H6         910.9716  -978.2500   321.7887 H6            1 RES     
   18584 H6         909.6334  -978.8756   322.8232 H6            1 RES     
   18585 H6         910.1901  -979.8259   321.3822 H6            1 RES     
   18586 C0         908.7917  -973.9436   315.9665 C0            1 RES     
   18587 C0         909.6935  -975.0963   316.5205 C0            1 RES     
   18588 C0         909.4614  -975.2767   318.0611 C0            1 RES     
   18589 C0         910.0314  -974.2640   319.0848 C0            1 RES     
   18590 C0         909.4047  -972.8557   319.1363 C0            1 RES     
   18591 C0         907.8786  -972.8082   319.3612 C0            1 RES     
   18592 C0         907.4191  -973.4768   320.6634 C0            1 RES     
   18593 C0         905.9074  -973.3392   320.8339 C0            1 RES     
   18594 C0         911.2285  -974.9833   316.2860 C0            1 RES     
   18595 C0         911.6728  -975.1288   314.8403 C0            1 RES     
   18596 C0         913.1940  -975.1940   314.6977 C0            1 RES     
   18597 C0         913.5614  -975.3915   313.2226 C0            1 RES     
   18598 C0         915.0804  -975.4694   313.0276 C0            1 RES     
   18599 C0         915.4805  -975.7331   311.5659 C0            1 RES     
   18600 C0         915.0575  -974.6062   310.6099 C0            1 RES     
   18601 C0         915.5375  -974.8834   309.1893 C0            1 RES     
   18602 H6         909.2807  -973.0001   316.2651 H6            1 RES     
   18603 H6         907.8569  -973.9524   316.5488 H6            1 RES     
   18604 H6         909.3533  -976.0449   316.0611 H6            1 RES     
   18605 H6         909.9392  -976.2456   318.3238 H6            1 RES     
   18606 H6         908.3842  -975.3818   318.2739 H6            1 RES     
   18607 H6         911.1282  -974.1701   318.9508 H6            1 RES     
   18608 H6         909.8866  -974.7162   320.0896 H6            1 RES     
   18609 H6         909.6512  -972.2982   318.2169 H6            1 RES     
   18610 H6         909.8946  -972.3034   319.9674 H6            1 RES     
   18611 H6         907.3440  -973.2795   318.5181 H6            1 RES     
   18612 H6         907.5791  -971.7372   319.3855 H6            1 RES     
   18613 H6         907.6673  -974.5588   320.6478 H6            1 RES     
   18614 H6         907.9270  -973.0002   321.5293 H6            1 RES     
   18615 H6         905.6192  -972.2669   320.8750 H6            1 RES     
   18616 H6         905.5897  -973.8296   321.7774 H6            1 RES     
   18617 H6         905.3770  -973.8241   319.9858 H6            1 RES     
   18618 H6         911.7096  -975.8215   316.8380 H6            1 RES     
   18619 H6         911.6162  -974.0269   316.6992 H6            1 RES     
   18620 H6         911.2656  -976.0824   314.4494 H6            1 RES     
   18621 H6         911.3112  -974.2586   314.2685 H6            1 RES     
   18622 H6         913.6468  -974.2538   315.0804 H6            1 RES     
   18623 H6         913.5871  -976.0514   315.2892 H6            1 RES     
   18624 H6         913.1000  -976.3344   312.8525 H6            1 RES     
   18625 H6         913.1478  -974.5381   312.6464 H6            1 RES     
   18626 H6         915.5537  -974.5269   313.3795 H6            1 RES     
   18627 H6         915.4743  -976.3079   313.6432 H6            1 RES     
   18628 H6         915.0379  -976.6966   311.2293 H6            1 RES     
   18629 H6         916.5879  -975.8296   311.5327 H6            1 RES     
   18630 H6         915.4920  -973.6430   310.9548 H6            1 RES     
   18631 H6         913.9520  -974.5141   310.5823 H6            1 RES     
   18632 H6         915.2186  -974.0550   308.5221 H6            1 RES     
   18633 H6         916.6455  -974.9553   309.1634 H6            1 RES     
   18634 H6         915.0994  -975.8325   308.8130 H6            1 RES     
   18635 C0         911.7250  -984.8566   308.1599 C0            1 RES     
   18636 C1         911.9487  -983.3761   308.4938 C1            1 RES     
   18637 C1         913.0612  -982.8675   307.9194 C1            1 RES     
   18638 S2         913.2762  -981.2473   308.2719 S2            1 RES     
   18639 C1         911.8535  -981.1821   309.2111 C1            1 RES     
   18640 C1         911.2292  -982.4346   309.2323 C1            1 RES     
   18641 C1         913.6910  -983.9022   307.1822 C1            1 RES     
   18642 C1         912.9873  -985.0646   307.3142 C1            1 RES     
   18643 C1         913.5835  -986.1340   306.6382 C1            1 RES     
   18644 C1         914.7816  -985.7339   305.9925 C1            1 RES     
   18645 S2         915.0473  -984.0659   306.2412 S2            1 RES     
   18646 H3         910.3069  -982.6473   309.7548 H3            1 RES     
   18647 H3         913.1708  -987.1317   306.6352 H3            1 RES     
   18648 N4         917.5708  -986.7265   303.6576 N4            1 RES     
   18649 C1         916.6563  -985.9810   304.3411 C1            1 RES     
   18650 C1         915.7461  -986.5818   305.2415 C1            1 RES     
   18651 C1         915.8401  -987.9746   305.4136 C1            1 RES     
   18652 N4         915.0782  -988.6993   306.2714 N4            1 RES     
   18653 S2         915.6682  -990.2305   306.0731 S2            1 RES     
   18654 N4         916.8616  -990.0494   304.9460 N4            1 RES     
   18655 C1         916.8195  -988.7185   304.6963 C1            1 RES     
   18656 C1         917.6745  -988.0733   303.8130 C1            1 RES     
   18657 H5         916.6374  -984.9142   304.1653 H5            1 RES     
   18658 C0         910.4294  -984.8338   307.2618 C0            1 RES     
   18659 C0         909.8188  -985.9851   306.3874 C0            1 RES     
   18660 C0         908.8809  -985.3609   305.2901 C0            1 RES     
   18661 C0         907.4648  -984.8367   305.6719 C0            1 RES     
   18662 C0         907.3399  -983.6065   306.5946 C0            1 RES     
   18663 C0         908.0805  -982.3409   306.1215 C0            1 RES     
   18664 C0         907.5632  -981.8021   304.7811 C0            1 RES     
   18665 C0         908.2942  -980.5186   304.3934 C0            1 RES     
   18666 C0         909.0096  -987.0883   307.1275 C0            1 RES     
   18667 C0         909.8335  -988.2393   307.6973 C0            1 RES     
   18668 C0         908.9390  -989.1961   308.5068 C0            1 RES     
   18669 C0         909.7451  -990.3378   309.1458 C0            1 RES     
   18670 C0         908.8726  -991.1322   310.1333 C0            1 RES     
   18671 C0         909.6572  -992.1671   310.9610 C0            1 RES     
   18672 C0         910.6585  -991.5109   311.9327 C0            1 RES     
   18673 C0         911.3387  -992.5451   312.8242 C0            1 RES     
   18674 H6         909.6296  -984.4203   307.8921 H6            1 RES     
   18675 H6         910.6903  -984.0679   306.4985 H6            1 RES     
   18676 H6         910.6444  -986.4475   305.8018 H6            1 RES     
   18677 H6         908.6897  -986.1737   304.5536 H6            1 RES     
   18678 H6         909.4254  -984.5765   304.7219 H6            1 RES     
   18679 H6         906.8769  -985.6625   306.1250 H6            1 RES     
   18680 H6         906.9529  -984.5846   304.7189 H6            1 RES     
   18681 H6         907.6656  -983.8665   307.6153 H6            1 RES     
   18682 H6         906.2600  -983.3609   306.6937 H6            1 RES     
   18683 H6         909.1666  -982.5331   306.0461 H6            1 RES     
   18684 H6         907.9322  -981.5564   306.8958 H6            1 RES     
   18685 H6         907.7231  -982.5503   303.9774 H6            1 RES     
   18686 H6         906.4761  -981.5851   304.8631 H6            1 RES     
   18687 H6         908.1414  -979.7366   305.1676 H6            1 RES     
   18688 H6         907.8999  -980.1424   303.4260 H6            1 RES     
   18689 H6         909.3825  -980.7133   304.2826 H6            1 RES     
   18690 H6         908.3292  -987.5921   306.4043 H6            1 RES     
   18691 H6         908.3760  -986.6048   307.9035 H6            1 RES     
   18692 H6         910.3434  -988.7849   306.8736 H6            1 RES     
   18693 H6         910.5894  -987.8289   308.3529 H6            1 RES     
   18694 H6         908.4664  -988.5992   309.3189 H6            1 RES     
   18695 H6         908.1345  -989.6214   307.8680 H6            1 RES     
   18696 H6         910.1633  -991.0089   308.3650 H6            1 RES     
   18697 H6         910.5925  -989.8990   309.6867 H6            1 RES     
   18698 H6         908.3777  -990.4369   310.8472 H6            1 RES     
   18699 H6         908.0764  -991.6525   309.5567 H6            1 RES     
   18700 H6         910.1793  -992.8797   310.2873 H6            1 RES     
   18701 H6         908.9178  -992.7356   311.5665 H6            1 RES     
   18702 H6         910.1226  -990.7861   312.5849 H6            1 RES     
   18703 H6         911.4509  -990.9759   311.3768 H6            1 RES     
   18704 H6         912.0434  -992.0334   313.5110 H6            1 RES     
   18705 H6         910.5839  -993.0895   313.4310 H6            1 RES     
   18706 H6         911.9078  -993.2724   312.2050 H6            1 RES     
   18707 C0         911.5872  -985.6106   309.5442 C0            1 RES     
   18708 C0         912.4139  -986.8683   309.9728 C0            1 RES     
   18709 C0         911.5999  -987.7312   310.9989 C0            1 RES     
   18710 C0         911.4226  -987.2781   312.4692 C0            1 RES     
   18711 C0         910.5185  -986.0601   312.7477 C0            1 RES     
   18712 C0         909.0784  -986.1542   312.2008 C0            1 RES     
   18713 C0         908.2831  -987.3497   312.7412 C0            1 RES     
   18714 C0         906.8574  -987.3386   312.1932 C0            1 RES     
   18715 C0         913.8277  -986.6265   310.5785 C0            1 RES     
   18716 C0         914.8642  -986.0923   309.6044 C0            1 RES     
   18717 C0         916.2692  -986.0512   310.2067 C0            1 RES     
   18718 C0         917.2634  -985.5519   309.1521 C0            1 RES     
   18719 C0         918.6918  -985.4985   309.7074 C0            1 RES     
   18720 C0         919.7246  -985.0635   308.6537 C0            1 RES     
   18721 C0         919.4930  -983.6362   308.1325 C0            1 RES     
   18722 C0         920.5814  -983.2300   307.1446 C0            1 RES     
   18723 H6         911.6634  -984.8932   310.3797 H6            1 RES     
   18724 H6         910.5255  -985.9031   309.5432 H6            1 RES     
   18725 H6         912.5372  -987.5142   309.0816 H6            1 RES     
   18726 H6         912.1361  -988.7029   311.0638 H6            1 RES     
   18727 H6         910.5934  -987.9457   310.6018 H6            1 RES     
   18728 H6         912.4154  -987.1087   312.9333 H6            1 RES     
   18729 H6         910.9770  -988.1389   313.0127 H6            1 RES     
   18730 H6         910.9917  -985.1416   312.3613 H6            1 RES     
   18731 H6         910.4624  -985.9322   313.8506 H6            1 RES     
   18732 H6         909.0813  -986.2053   311.0979 H6            1 RES     
   18733 H6         908.5519  -985.2171   312.4870 H6            1 RES     
   18734 H6         908.7637  -988.3017   312.4326 H6            1 RES     
   18735 H6         908.2459  -987.3047   313.8509 H6            1 RES     
   18736 H6         906.3332  -986.4076   312.4986 H6            1 RES     
   18737 H6         906.2957  -988.2097   312.5899 H6            1 RES     
   18738 H6         906.8693  -987.3995   311.0834 H6            1 RES     
   18739 H6         914.2129  -987.6125   310.9223 H6            1 RES     
   18740 H6         913.7637  -985.9517   311.4596 H6            1 RES     
   18741 H6         914.9011  -986.7751   308.7323 H6            1 RES     
   18742 H6         914.5842  -985.0661   309.3154 H6            1 RES     
   18743 H6         916.2789  -985.3757   311.0893 H6            1 RES     
   18744 H6         916.5653  -987.0743   310.5313 H6            1 RES     
   18745 H6         917.2415  -986.2358   308.2742 H6            1 RES     
   18746 H6         916.9438  -984.5399   308.8280 H6            1 RES     
   18747 H6         918.7318  -984.8065   310.5766 H6            1 RES     
   18748 H6         918.9739  -986.5156   310.0586 H6            1 RES     
   18749 H6         919.7098  -985.7806   307.8032 H6            1 RES     
   18750 H6         920.7290  -985.1093   309.1287 H6            1 RES     
   18751 H6         919.4972  -982.9234   308.9854 H6            1 RES     
   18752 H6         918.5170  -983.5668   307.6090 H6            1 RES     
   18753 H6         920.3892  -982.1969   306.7855 H6            1 RES     
   18754 H6         921.5775  -983.2570   307.6352 H6            1 RES     
   18755 H6         920.5840  -983.9161   306.2708 H6            1 RES     
   18756 C0         920.0581  -991.7439   300.6409 C0            1 RES     
   18757 C1         919.7599  -990.5697   301.5821 C1            1 RES     
   18758 C1         920.8548  -989.8310   301.8682 C1            1 RES     
   18759 S2         920.5079  -988.5410   302.8736 S2            1 RES     
   18760 C1         918.8508  -988.9400   302.9439 C1            1 RES     
   18761 C1         918.5940  -990.0806   302.1745 C1            1 RES     
   18762 C1         921.9640  -990.4058   301.1973 C1            1 RES     
   18763 C1         921.5694  -991.5181   300.5109 C1            1 RES     
   18764 C1         922.6315  -992.1523   299.8583 C1            1 RES     
   18765 C1         923.8572  -991.4762   300.0883 C1            1 RES     
   18766 S2         923.5873  -990.0954   301.0553 S2            1 RES     
   18767 H3         917.6170  -990.5275   302.0541 H3            1 RES     
   18768 H3         922.5093  -993.0499   299.2709 H3            1 RES     
   18769 N4         927.5212  -991.2417   299.2299 N4            1 RES     
   18770 C1         926.2549  -990.9070   299.6089 C1            1 RES     
   18771 C1         925.2202  -991.8706   299.6413 C1            1 RES     
   18772 C1         925.5603  -993.1882   299.2852 C1            1 RES     
   18773 N4         924.7028  -994.2396   299.3084 N4            1 RES     
   18774 S2         925.6663  -995.5017   298.8495 S2            1 RES     
   18775 N4         927.1444  -994.8033   298.6153 N4            1 RES     
   18776 C1         926.8973  -993.5047   298.9118 C1            1 RES     
   18777 C1         927.8660  -992.5105   298.8832 C1            1 RES     
   18778 H5         926.0594  -989.8767   299.8729 H5            1 RES     
   18779 C0         919.3021  -991.3470   299.3155 C0            1 RES     
   18780 C0         919.4136  -991.9920   297.8892 C0            1 RES     
   18781 C0         918.9116  -990.9607   296.8132 C0            1 RES     
   18782 C0         917.3878  -990.6983   296.6264 C0            1 RES     
   18783 C0         916.5945  -990.0215   297.7636 C0            1 RES     
   18784 C0         917.1416  -988.6622   298.2401 C0            1 RES     
   18785 C0         917.1307  -987.5875   297.1450 C0            1 RES     
   18786 C0         917.6289  -986.2511   297.6907 C0            1 RES     
   18787 C0         918.6546  -993.3288   297.6513 C0            1 RES     
   18788 C0         919.4060  -994.5940   298.0551 C0            1 RES     
   18789 C0         918.5083  -995.8336   297.8866 C0            1 RES     
   18790 C0         919.2126  -997.1221   298.3396 C0            1 RES     
   18791 C0         918.2199  -998.2969   298.3841 C0            1 RES     
   18792 C0         918.7999  -999.5759   299.0158 C0            1 RES     
   18793 C0         919.1063  -999.4074   300.5175 C0            1 RES     
   18794 C0         919.5678 -1000.7171   301.1489 C0            1 RES     
   18795 H6         918.2375  -991.2816   299.5805 H6            1 RES     
   18796 H6         919.6721  -990.3130   299.1388 H6            1 RES     
   18797 H6         920.4933  -992.1207   297.6529 H6            1 RES     
   18798 H6         919.2505  -991.3567   295.8293 H6            1 RES     
   18799 H6         919.4422  -989.9919   296.9344 H6            1 RES     
   18800 H6         916.8780  -991.6529   296.3779 H6            1 RES     
   18801 H6         917.2852  -990.0543   295.7273 H6            1 RES     
   18802 H6         916.5075  -990.7074   298.6223 H6            1 RES     
   18803 H6         915.5506  -989.8720   297.4110 H6            1 RES     
   18804 H6         918.1681  -988.7747   298.6348 H6            1 RES     
   18805 H6         916.4968  -988.3163   299.0777 H6            1 RES     
   18806 H6         917.7894  -987.8876   296.3039 H6            1 RES     
   18807 H6         916.0945  -987.4559   296.7645 H6            1 RES     
   18808 H6         916.9808  -985.9074   298.5251 H6            1 RES     
   18809 H6         917.6056  -985.4872   296.8853 H6            1 RES     
   18810 H6         918.6729  -986.3498   298.0578 H6            1 RES     
   18811 H6         918.4869  -993.4666   296.5592 H6            1 RES     
   18812 H6         917.6566  -993.2631   298.1384 H6            1 RES     
   18813 H6         920.3309  -994.6963   297.4466 H6            1 RES     
   18814 H6         919.6905  -994.5072   299.0949 H6            1 RES     
   18815 H6         917.6088  -995.6793   298.5239 H6            1 RES     
   18816 H6         918.1777  -995.9422   296.8306 H6            1 RES     
   18817 H6         920.0690  -997.3578   297.6718 H6            1 RES     
   18818 H6         919.6190  -996.9561   299.3449 H6            1 RES     
   18819 H6         917.3192  -998.0110   298.9715 H6            1 RES     
   18820 H6         917.8928  -998.5182   297.3443 H6            1 RES     
   18821 H6         919.7115  -999.8947   298.4665 H6            1 RES     
   18822 H6         918.0321 -1000.3735   298.9123 H6            1 RES     
   18823 H6         918.1889  -999.0682   301.0479 H6            1 RES     
   18824 H6         919.9073  -998.6609   300.6728 H6            1 RES     
   18825 H6         919.7703 -1000.5553   302.2273 H6            1 RES     
   18826 H6         918.7801 -1001.4942   301.0482 H6            1 RES     
   18827 H6         920.5008 -1001.0727   300.6595 H6            1 RES     
   18828 C0         919.5293  -993.0453   301.3692 C0            1 RES     
   18829 C0         920.3684  -994.3416   301.6225 C0            1 RES     
   18830 C0         919.4267  -995.5936   301.6992 C0            1 RES     
   18831 C0         918.5400  -995.8585   302.9409 C0            1 RES     
   18832 C0         917.3423  -994.9190   303.1894 C0            1 RES     
   18833 C0         916.3388  -994.7885   302.0242 C0            1 RES     
   18834 C0         915.6987  -996.1170   301.6008 C0            1 RES     
   18835 C0         914.6831  -995.8918   300.4823 C0            1 RES     
   18836 C0         921.2890  -994.3676   302.8779 C0            1 RES     
   18837 C0         922.4811  -993.4272   302.8234 C0            1 RES     
   18838 C0         923.4431  -993.6308   303.9946 C0            1 RES     
   18839 C0         924.6407  -992.6860   303.8430 C0            1 RES     
   18840 C0         925.6402  -992.8569   304.9934 C0            1 RES     
   18841 C0         926.8865  -991.9690   304.8365 C0            1 RES     
   18842 C0         926.5662  -990.4660   304.8651 C0            1 RES     
   18843 C0         927.8399  -989.6322   304.7758 C0            1 RES     
   18844 H6         919.0706  -992.7817   302.3380 H6            1 RES     
   18845 H6         918.6717  -993.3299   300.7396 H6            1 RES     
   18846 H6         921.0081  -994.5116   300.7344 H6            1 RES     
   18847 H6         920.0986  -996.4771   301.6363 H6            1 RES     
   18848 H6         918.7671  -995.6282   300.8159 H6            1 RES     
   18849 H6         919.1700  -995.8947   303.8528 H6            1 RES     
   18850 H6         918.1245  -996.8819   302.8190 H6            1 RES     
   18851 H6         917.7015  -993.9145   303.4701 H6            1 RES     
   18852 H6         916.7947  -995.3050   304.0765 H6            1 RES     
   18853 H6         916.8217  -994.3353   301.1408 H6            1 RES     
   18854 H6         915.5345  -994.0944   302.3539 H6            1 RES     
   18855 H6         916.4759  -996.8153   301.2255 H6            1 RES     
   18856 H6         915.1843  -996.5795   302.4705 H6            1 RES     
   18857 H6         913.8742  -995.2118   300.8258 H6            1 RES     
   18858 H6         914.2310  -996.8608   300.1848 H6            1 RES     
   18859 H6         915.1792  -995.4440   299.5940 H6            1 RES     
   18860 H6         921.7139  -995.3935   302.9548 H6            1 RES     
   18861 H6         920.6986  -994.1659   303.7979 H6            1 RES     
   18862 H6         923.0459  -993.6408   301.8942 H6            1 RES     
   18863 H6         922.1152  -992.3879   302.8562 H6            1 RES     
   18864 H6         922.9163  -993.4274   304.9519 H6            1 RES     
   18865 H6         923.8072  -994.6830   303.9989 H6            1 RES     
   18866 H6         925.1569  -992.8994   302.8802 H6            1 RES     
   18867 H6         924.2586  -991.6444   303.8235 H6            1 RES     
   18868 H6         925.1417  -992.6321   305.9614 H6            1 RES     
   18869 H6         925.9793  -993.9161   305.0140 H6            1 RES     
   18870 H6         927.4051  -992.2241   303.8859 H6            1 RES     
   18871 H6         927.5732  -992.2017   305.6796 H6            1 RES     
   18872 H6         926.0384  -990.2160   305.8109 H6            1 RES     
   18873 H6         925.9193  -990.1896   304.0069 H6            1 RES     
   18874 H6         927.5789  -988.5531   304.7988 H6            1 RES     
   18875 H6         928.5083  -989.8554   305.6343 H6            1 RES     
   18876 H6         928.3762  -989.8488   303.8272 H6            1 RES     
   18877 C0         932.1675  -994.2944   296.1390 C0            1 RES     
   18878 C1         931.2283  -993.6799   297.1848 C1            1 RES     
   18879 C1         931.8879  -993.1257   298.2261 C1            1 RES     
   18880 S2         930.8513  -992.4380   299.3432 S2            1 RES     
   18881 C1         929.4686  -992.8634   298.4392 C1            1 RES     
   18882 C1         929.8420  -993.5383   297.2713 C1            1 RES     
   18883 C1         933.2783  -993.3095   298.0174 C1            1 RES     
   18884 C1         933.4894  -993.9998   296.8586 C1            1 RES     
   18885 C1         934.8451  -994.2459   296.6184 C1            1 RES     
   18886 C1         935.6576  -993.7192   297.6551 C1            1 RES     
   18887 S2         934.6831  -992.9314   298.8146 S2            1 RES     
   18888 H3         929.1458  -993.9047   296.5298 H3            1 RES     
   18889 H3         935.2011  -994.7834   295.7524 H3            1 RES     
   18890 N4         939.1674  -993.0383   298.8529 N4            1 RES     
   18891 C1         937.8206  -992.9401   298.6637 C1            1 RES     
   18892 C1         937.1319  -993.8375   297.8149 C1            1 RES     
   18893 C1         937.8934  -994.8435   297.1932 C1            1 RES     
   18894 N4         937.3842  -995.8111   296.3894 N4            1 RES     
   18895 S2         938.7209  -996.7069   296.0114 S2            1 RES     
   18896 N4         939.9456  -995.9446   296.8152 N4            1 RES     
   18897 C1         939.2952  -994.9264   297.4282 C1            1 RES     
   18898 C1         939.9173  -994.0049   298.2596 C1            1 RES     
   18899 H5         937.2928  -992.1453   299.1729 H5            1 RES     
   18900 C0         931.9754  -993.3584   294.8849 C0            1 RES     
   18901 C0         932.8317  -993.2861   293.5716 C0            1 RES     
   18902 C0         932.6049  -991.8914   292.8811 C0            1 RES     
   18903 C0         931.2904  -991.6078   292.0951 C0            1 RES     
   18904 C0         929.9537  -991.5367   292.8624 C0            1 RES     
   18905 C0         929.9063  -990.5277   294.0259 C0            1 RES     
   18906 C0         930.1063  -989.0745   293.5757 C0            1 RES     
   18907 C0         929.9922  -988.1183   294.7610 C0            1 RES     
   18908 C0         932.5873  -994.3877   292.5010 C0            1 RES     
   18909 C0         933.3731  -995.6812   292.6954 C0            1 RES     
   18910 C0         932.9549  -996.7308   291.6492 C0            1 RES     
   18911 C0         933.6842  -998.0685   291.8503 C0            1 RES     
   18912 C0         933.0773  -999.1587   290.9500 C0            1 RES     
   18913 C0         933.6198 -1000.5716   291.2346 C0            1 RES     
   18914 C0         933.2099 -1001.0934   292.6263 C0            1 RES     
   18915 C0         933.6563 -1002.5360   292.8411 C0            1 RES     
   18916 H6         930.9173  -993.4443   294.6005 H6            1 RES     
   18917 H6         932.1279  -992.3481   295.3245 H6            1 RES     
   18918 H6         933.9059  -993.2693   293.8615 H6            1 RES     
   18919 H6         933.4127  -991.7919   292.1215 H6            1 RES     
   18920 H6         932.7866  -991.0704   293.6074 H6            1 RES     
   18921 H6         931.1775  -992.3582   291.2846 H6            1 RES     
   18922 H6         931.4295  -990.6293   291.5882 H6            1 RES     
   18923 H6         929.6762  -992.5386   293.2293 H6            1 RES     
   18924 H6         929.1559  -991.2677   292.1361 H6            1 RES     
   18925 H6         930.6623  -990.7830   294.7911 H6            1 RES     
   18926 H6         928.9052  -990.6127   294.5029 H6            1 RES     
   18927 H6         931.1102  -988.9466   293.1205 H6            1 RES     
   18928 H6         929.3313  -988.8088   292.8244 H6            1 RES     
   18929 H6         928.9901  -988.2039   295.2329 H6            1 RES     
   18930 H6         930.1323  -987.0735   294.4123 H6            1 RES     
   18931 H6         930.7720  -988.3485   295.5183 H6            1 RES     
   18932 H6         932.9372  -994.0206   291.5098 H6            1 RES     
   18933 H6         931.4931  -994.5722   292.4234 H6            1 RES     
   18934 H6         934.4638  -995.4762   292.6282 H6            1 RES     
   18935 H6         933.1596  -996.0676   293.6827 H6            1 RES     
   18936 H6         931.8619  -996.9020   291.7714 H6            1 RES     
   18937 H6         933.1403  -996.3577   290.6184 H6            1 RES     
   18938 H6         934.7719  -997.9571   291.6519 H6            1 RES     
   18939 H6         933.5730  -998.3657   292.9004 H6            1 RES     
   18940 H6         931.9730  -999.1900   291.0831 H6            1 RES     
   18941 H6         933.2856  -998.8933   289.8901 H6            1 RES     
   18942 H6         934.7252 -1000.5866   291.1239 H6            1 RES     
   18943 H6         933.1825 -1001.2534   290.4728 H6            1 RES     
   18944 H6         932.1026 -1001.0518   292.7272 H6            1 RES     
   18945 H6         933.6663 -1000.4797   293.4251 H6            1 RES     
   18946 H6         933.3369 -1002.8749   293.8478 H6            1 RES     
   18947 H6         933.1956 -1003.2014   292.0799 H6            1 RES     
   18948 H6         934.7637 -1002.6105   292.7737 H6            1 RES     
   18949 C0         931.7057  -995.7962   295.9517 C0            1 RES     
   18950 C0         932.6394  -997.0474   296.0587 C0            1 RES     
   18951 C0         932.0816  -998.2199   295.1787 C0            1 RES     
   18952 C0         930.8427  -999.0379   295.6196 C0            1 RES     
   18953 C0         929.4676  -998.3399   295.5944 C0            1 RES     
   18954 C0         929.0545  -997.7195   294.2430 C0            1 RES     
   18955 C0         928.9908  -998.7272   293.0879 C0            1 RES     
   18956 C0         928.5249  -998.0438   291.8037 C0            1 RES     
   18957 C0         932.9168  -997.6173   297.4808 C0            1 RES     
   18958 C0         933.7579  -996.7269   298.3799 C0            1 RES     
   18959 C0         934.1495  -997.4162   299.6876 C0            1 RES     
   18960 C0         935.0356  -996.4778   300.5149 C0            1 RES     
   18961 C0         935.4610  -997.1276   301.8371 C0            1 RES     
   18962 C0         936.4054  -996.2365   302.6619 C0            1 RES     
   18963 C0         935.7562  -994.9167   303.1080 C0            1 RES     
   18964 C0         936.7087  -994.1037   303.9782 C0            1 RES     
   18965 H6         930.8310  -996.0097   296.5903 H6            1 RES     
   18966 H6         931.2913  -995.7848   294.9314 H6            1 RES     
   18967 H6         933.6156  -996.7828   295.6074 H6            1 RES     
   18968 H6         932.9054  -998.9638   295.1154 H6            1 RES     
   18969 H6         931.8886  -997.8664   294.1518 H6            1 RES     
   18970 H6         931.0146  -999.4681   296.6272 H6            1 RES     
   18971 H6         930.7748  -999.9047   294.9276 H6            1 RES     
   18972 H6         929.4234  -997.5630   296.3763 H6            1 RES     
   18973 H6         928.7043  -999.0977   295.8754 H6            1 RES     
   18974 H6         929.7438  -996.9050   293.9595 H6            1 RES     
   18975 H6         928.0470  -997.2681   294.3782 H6            1 RES     
   18976 H6         929.9952  -999.1623   292.9021 H6            1 RES     
   18977 H6         928.2821  -999.5446   293.3419 H6            1 RES     
   18978 H6         927.5107  -997.6113   291.9421 H6            1 RES     
   18979 H6         928.4866  -998.7836   290.9772 H6            1 RES     
   18980 H6         929.2290  -997.2315   291.5206 H6            1 RES     
   18981 H6         933.4992  -998.5570   297.3523 H6            1 RES     
   18982 H6         931.9625  -997.8669   297.9933 H6            1 RES     
   18983 H6         934.6966  -996.4843   297.8432 H6            1 RES     
   18984 H6         933.1773  -995.8234   298.6282 H6            1 RES     
   18985 H6         933.2344  -997.6797   300.2609 H6            1 RES     
   18986 H6         934.7158  -998.3479   299.4624 H6            1 RES     
   18987 H6         935.9461  -996.2209   299.9283 H6            1 RES     
   18988 H6         934.4625  -995.5490   300.7152 H6            1 RES     
   18989 H6         934.5611  -997.3762   302.4408 H6            1 RES     
   18990 H6         936.0003  -998.0736   301.6099 H6            1 RES     
   18991 H6         937.3227  -996.0223   302.0701 H6            1 RES     
   18992 H6         936.7027  -996.8095   303.5674 H6            1 RES     
   18993 H6         934.8341  -995.1334   303.6896 H6            1 RES     
   18994 H6         935.4897  -994.2969   302.2269 H6            1 RES     
   18995 H6         936.2144  -993.1579   304.2853 H6            1 RES     
   18996 H6         936.9812  -994.6757   304.8905 H6            1 RES     
   18997 H6         937.6314  -993.8557   303.4114 H6            1 RES     
   18998 C0         945.2645  -994.2564   297.5103 C0            1 RES     
   18999 C1         943.8538  -994.2028   298.1109 C1            1 RES     
   19000 C1         943.8563  -994.1644   299.4619 C1            1 RES     
   19001 S2         942.3129  -994.0801   300.0994 S2            1 RES     
   19002 C1         941.5898  -994.0822   298.5542 C1            1 RES     
   19003 C1         942.5723  -994.1473   297.5596 C1            1 RES     
   19004 C1         945.2033  -994.2022   299.9031 C1            1 RES     
   19005 C1         946.0438  -994.2889   298.8307 C1            1 RES     
   19006 C1         947.3886  -994.3688   299.2064 C1            1 RES     
   19007 C1         947.5331  -994.3494   300.6175 C1            1 RES     
   19008 S2         946.0022  -994.1936   301.3569 S2            1 RES     
   19009 H3         942.3660  -994.1545   296.4984 H3            1 RES     
   19010 H3         948.1951  -994.4483   298.4930 H3            1 RES     
   19011 N4         949.9290  -994.2038   303.5253 N4            1 RES     
   19012 C1         948.8094  -994.0614   302.7601 C1            1 RES     
   19013 C1         948.7814  -994.4935   301.4137 C1            1 RES     
   19014 C1         949.9498  -995.0920   300.9085 C1            1 RES     
   19015 N4         950.0762  -995.6028   299.6577 N4            1 RES     
   19016 S2         951.6173  -996.2001   299.6656 S2            1 RES     
   19017 N4         952.1649  -995.8559   301.1851 N4            1 RES     
   19018 C1         951.0944  -995.2401   301.7422 C1            1 RES     
   19019 C1         951.0659  -994.7802   303.0518 C1            1 RES     
   19020 H5         947.9433  -993.5951   303.2093 H5            1 RES     
   19021 C0         945.4066  -992.8591   296.7939 C0            1 RES     
   19022 C0         946.6950  -992.1812   296.2078 C0            1 RES     
   19023 C0         946.4585  -990.6306   296.0934 C0            1 RES     
   19024 C0         945.5764  -990.0523   294.9474 C0            1 RES     
   19025 C0         944.0660  -990.3663   294.9269 C0            1 RES     
   19026 C0         943.2907  -989.9939   296.2054 C0            1 RES     
   19027 C0         943.3112  -988.4901   296.5094 C0            1 RES     
   19028 C0         942.4811  -988.1761   297.7522 C0            1 RES     
   19029 C0         947.1979  -992.6849   294.8248 C0            1 RES     
   19030 C0         948.1093  -993.9082   294.8607 C0            1 RES     
   19031 C0         948.4376  -994.3805   293.4323 C0            1 RES     
   19032 C0         949.3073  -995.6475   293.4290 C0            1 RES     
   19033 C0         949.4184  -996.2263   292.0077 C0            1 RES     
   19034 C0         950.1074  -997.6023   291.9501 C0            1 RES     
   19035 C0         949.2824  -998.7062   292.6414 C0            1 RES     
   19036 C0         949.9242 -1000.0795   292.4710 C0            1 RES     
   19037 H6         944.6233  -992.8312   296.0234 H6            1 RES     
   19038 H6         945.1130  -992.1536   297.6022 H6            1 RES     
   19039 H6         947.5064  -992.2728   296.9638 H6            1 RES     
   19040 H6         947.4631  -990.1799   295.9286 H6            1 RES     
   19041 H6         946.1138  -990.2228   297.0679 H6            1 RES     
   19042 H6         946.0003  -990.3574   293.9675 H6            1 RES     
   19043 H6         945.6806  -988.9475   294.9944 H6            1 RES     
   19044 H6         943.9059  -991.4319   294.6938 H6            1 RES     
   19045 H6         943.6134  -989.8164   294.0731 H6            1 RES     
   19046 H6         943.6871  -990.5503   297.0746 H6            1 RES     
   19047 H6         942.2338  -990.3083   296.0601 H6            1 RES     
   19048 H6         944.3511  -988.1473   296.6896 H6            1 RES     
   19049 H6         942.8900  -987.9311   295.6459 H6            1 RES     
   19050 H6         941.4255  -988.4888   297.6024 H6            1 RES     
   19051 H6         942.5031  -987.0837   297.9494 H6            1 RES     
   19052 H6         942.8955  -988.7060   298.6365 H6            1 RES     
   19053 H6         947.8371  -991.9013   294.3588 H6            1 RES     
   19054 H6         946.3187  -992.8393   294.1609 H6            1 RES     
   19055 H6         949.0420  -993.6701   295.4171 H6            1 RES     
   19056 H6         947.5954  -994.7040   295.3824 H6            1 RES     
   19057 H6         947.4715  -994.6133   292.9310 H6            1 RES     
   19058 H6         948.9485  -993.5774   292.8576 H6            1 RES     
   19059 H6         950.3153  -995.4336   293.8450 H6            1 RES     
   19060 H6         948.8350  -996.3899   294.0841 H6            1 RES     
   19061 H6         948.4046  -996.3396   291.5634 H6            1 RES     
   19062 H6         949.9873  -995.5056   291.3799 H6            1 RES     
   19063 H6         951.1237  -997.5404   292.3947 H6            1 RES     
   19064 H6         950.2109  -997.8757   290.8773 H6            1 RES     
   19065 H6         948.2623  -998.7400   292.1984 H6            1 RES     
   19066 H6         949.1962  -998.5099   293.7264 H6            1 RES     
   19067 H6         949.2983 -1000.8442   292.9748 H6            1 RES     
   19068 H6         950.0030 -1000.3391   291.3935 H6            1 RES     
   19069 H6         950.9379 -1000.0902   292.9276 H6            1 RES     
   19070 C0         945.2974  -995.5212   296.5601 C0            1 RES     
   19071 C0         946.3651  -996.6639   296.6157 C0            1 RES     
   19072 C0         946.5301  -997.3241   295.2026 C0            1 RES     
   19073 C0         945.4550  -998.2811   294.6310 C0            1 RES     
   19074 C0         944.0984  -997.6788   294.2119 C0            1 RES     
   19075 C0         944.1638  -996.5240   293.1902 C0            1 RES     
   19076 C0         944.8381  -996.9015   291.8648 C0            1 RES     
   19077 C0         944.8138  -995.7222   290.8944 C0            1 RES     
   19078 C0         946.1391  -997.8088   297.6464 C0            1 RES     
   19079 C0         946.2806  -997.4023   299.1036 C0            1 RES     
   19080 C0         946.2314  -998.5992   300.0541 C0            1 RES     
   19081 C0         946.4313  -998.1164   301.4952 C0            1 RES     
   19082 C0         946.3960  -999.2840   302.4887 C0            1 RES     
   19083 C0         946.6591  -998.8409   303.9381 C0            1 RES     
   19084 C0         945.5888  -997.8806   304.4811 C0            1 RES     
   19085 C0         945.8583  -997.5276   305.9399 C0            1 RES     
   19086 H6         944.3129  -996.0204   296.5536 H6            1 RES     
   19087 H6         945.3659  -995.0592   295.5628 H6            1 RES     
   19088 H6         947.3467  -996.2017   296.8382 H6            1 RES     
   19089 H6         947.4534  -997.9400   295.2666 H6            1 RES     
   19090 H6         946.7134  -996.5490   294.4395 H6            1 RES     
   19091 H6         945.2797  -999.1164   295.3391 H6            1 RES     
   19092 H6         945.8954  -998.7427   293.7211 H6            1 RES     
   19093 H6         943.5432  -997.3407   295.1032 H6            1 RES     
   19094 H6         943.4924  -998.4989   293.7693 H6            1 RES     
   19095 H6         944.6927  -995.6538   293.6167 H6            1 RES     
   19096 H6         943.1188  -996.2056   292.9805 H6            1 RES     
   19097 H6         945.8978  -997.1826   292.0395 H6            1 RES     
   19098 H6         944.3054  -997.7614   291.4046 H6            1 RES     
   19099 H6         943.7662  -995.4223   290.6767 H6            1 RES     
   19100 H6         945.3070  -996.0089   289.9424 H6            1 RES     
   19101 H6         945.3560  -994.8539   291.3276 H6            1 RES     
   19102 H6         946.9259  -998.5753   297.4665 H6            1 RES     
   19103 H6         945.1472  -998.2849   297.4884 H6            1 RES     
   19104 H6         947.2709  -996.9218   299.2323 H6            1 RES     
   19105 H6         945.4533  -996.7222   299.3644 H6            1 RES     
   19106 H6         945.2512  -999.1143   299.9574 H6            1 RES     
   19107 H6         947.0433  -999.3153   299.7936 H6            1 RES     
   19108 H6         947.4147  -997.6013   301.5766 H6            1 RES     
   19109 H6         945.6248  -997.3920   301.7318 H6            1 RES     
   19110 H6         945.4126  -999.7992   302.4290 H6            1 RES     
   19111 H6         947.1884 -1000.0124   302.2081 H6            1 RES     
   19112 H6         947.6609  -998.3613   304.0022 H6            1 RES     
   19113 H6         946.6707  -999.7545   304.5720 H6            1 RES     
   19114 H6         944.5878  -998.3580   304.4056 H6            1 RES     
   19115 H6         945.5828  -996.9357   303.8992 H6            1 RES     
   19116 H6         945.0713  -996.8344   306.3050 H6            1 RES     
   19117 H6         945.8450  -998.4439   306.5675 H6            1 RES     
   19118 H6         946.8461  -997.0290   306.0394 H6            1 RES     
   19119 C0         956.1153  -994.5436   304.9660 C0            1 RES     
   19120 C1         954.6152  -994.7996   304.7722 C1            1 RES     
   19121 C1         954.0346  -995.3762   305.8478 C1            1 RES     
   19122 S2         952.3956  -995.6245   305.6303 S2            1 RES     
   19123 C1         952.4203  -994.9442   304.0660 C1            1 RES     
   19124 C1         953.7165  -994.5301   303.7382 C1            1 RES     
   19125 C1         955.0331  -995.5787   306.8341 C1            1 RES     
   19126 C1         956.2433  -995.1519   306.3680 C1            1 RES     
   19127 C1         957.2777  -995.3623   307.2855 C1            1 RES     
   19128 C1         956.8003  -995.9797   308.4700 C1            1 RES     
   19129 S2         955.1119  -996.2101   308.3660 S2            1 RES     
   19130 H3         953.9885  -994.0613   302.8028 H3            1 RES     
   19131 H3         958.3041  -995.0922   307.0872 H3            1 RES     
   19132 N4         957.6243  -997.1101   311.9715 N4            1 RES     
   19133 C1         956.9372  -996.6628   310.8820 C1            1 RES     
   19134 C1         957.5870  -996.4398   309.6458 C1            1 RES     
   19135 C1         958.9645  -996.7183   309.5867 C1            1 RES     
   19136 N4         959.7274  -996.6053   308.4701 N4            1 RES     
   19137 S2         961.2124  -997.1062   308.9952 S2            1 RES     
   19138 N4         960.9638  -997.4740   310.5859 N4            1 RES     
   19139 C1         959.6458  -997.2012   310.7398 C1            1 RES     
   19140 C1         958.9555  -997.3840   311.9305 C1            1 RES     
   19141 H5         955.8789  -996.4698   310.9930 H5            1 RES     
   19142 C0         956.2115  -992.9705   305.0116 C0            1 RES     
   19143 C0         957.4248  -992.0717   305.4393 C0            1 RES     
   19144 C0         956.8982  -990.6428   305.8322 C0            1 RES     
   19145 C0         956.4767  -989.6290   304.7274 C0            1 RES     
   19146 C0         955.2404  -989.9343   303.8562 C0            1 RES     
   19147 C0         953.9318  -990.1980   304.6258 C0            1 RES     
   19148 C0         953.4632  -988.9942   305.4537 C0            1 RES     
   19149 C0         952.1357  -989.2952   306.1461 C0            1 RES     
   19150 C0         958.5711  -991.8839   304.4048 C0            1 RES     
   19151 C0         959.6428  -992.9700   304.4045 C0            1 RES     
   19152 C0         960.6483  -992.7377   303.2617 C0            1 RES     
   19153 C0         961.7106  -993.8461   303.1935 C0            1 RES     
   19154 C0         962.5487  -993.7169   301.9096 C0            1 RES     
   19155 C0         963.5022  -994.9020   301.6690 C0            1 RES     
   19156 C0         962.7503  -996.2178   301.3849 C0            1 RES     
   19157 C0         963.7098  -997.3505   301.0339 C0            1 RES     
   19158 H6         955.8476  -992.6151   304.0373 H6            1 RES     
   19159 H6         955.4442  -992.7137   305.7748 H6            1 RES     
   19160 H6         957.8346  -992.4767   306.3914 H6            1 RES     
   19161 H6         957.7388  -990.1434   306.3648 H6            1 RES     
   19162 H6         956.0864  -990.7277   306.5862 H6            1 RES     
   19163 H6         957.3355  -989.4483   304.0472 H6            1 RES     
   19164 H6         956.2851  -988.6628   305.2407 H6            1 RES     
   19165 H6         955.4528  -990.7826   303.1849 H6            1 RES     
   19166 H6         955.0768  -989.0681   303.1785 H6            1 RES     
   19167 H6         954.0413  -991.0781   305.2858 H6            1 RES     
   19168 H6         953.1449  -990.4368   303.8770 H6            1 RES     
   19169 H6         954.2138  -988.7463   306.2326 H6            1 RES     
   19170 H6         953.3290  -988.1149   304.7870 H6            1 RES     
   19171 H6         951.3515  -989.5303   305.3951 H6            1 RES     
   19172 H6         951.8116  -988.4098   306.7325 H6            1 RES     
   19173 H6         952.2482  -990.1580   306.8370 H6            1 RES     
   19174 H6         959.1411  -990.9599   304.6520 H6            1 RES     
   19175 H6         958.1215  -991.7414   303.3973 H6            1 RES     
   19176 H6         960.1648  -992.9880   305.3860 H6            1 RES     
   19177 H6         959.1615  -993.9273   304.2573 H6            1 RES     
   19178 H6         960.0725  -992.7407   302.3091 H6            1 RES     
   19179 H6         961.1478  -991.7502   303.3687 H6            1 RES     
   19180 H6         962.3639  -993.8205   304.0921 H6            1 RES     
   19181 H6         961.1964  -994.8150   303.1917 H6            1 RES     
   19182 H6         961.8786  -993.6401   301.0247 H6            1 RES     
   19183 H6         963.1410  -992.7774   301.9713 H6            1 RES     
   19184 H6         964.1866  -995.0247   302.5355 H6            1 RES     
   19185 H6         964.1131  -994.6583   300.7724 H6            1 RES     
   19186 H6         962.0552  -996.0709   300.5286 H6            1 RES     
   19187 H6         962.1677  -996.5353   302.2697 H6            1 RES     
   19188 H6         963.1308  -998.2744   300.8302 H6            1 RES     
   19189 H6         964.2978  -997.0929   300.1270 H6            1 RES     
   19190 H6         964.4041  -997.5433   301.8806 H6            1 RES     
   19191 C0         956.8481  -995.2409   303.7493 C0            1 RES     
   19192 C0         958.0289  -996.2605   303.8714 C0            1 RES     
   19193 C0         958.9300  -996.2064   302.5888 C0            1 RES     
   19194 C0         958.4608  -996.8258   301.2491 C0            1 RES     
   19195 C0         957.3104  -996.1302   300.4931 C0            1 RES     
   19196 C0         957.5268  -994.6370   300.1686 C0            1 RES     
   19197 C0         958.7683  -994.3589   299.3111 C0            1 RES     
   19198 C0         958.8788  -992.8691   298.9927 C0            1 RES     
   19199 C0         957.6660  -997.7526   304.1289 C0            1 RES     
   19200 C0         957.0744  -998.0458   305.4973 C0            1 RES     
   19201 C0         956.9123  -999.5440   305.7577 C0            1 RES     
   19202 C0         956.3604  -999.7606   307.1713 C0            1 RES     
   19203 C0         956.1853 -1001.2517   307.4835 C0            1 RES     
   19204 C0         955.6944 -1001.5060   308.9190 C0            1 RES     
   19205 C0         954.3006 -1000.9198   309.1948 C0            1 RES     
   19206 C0         953.8328 -1001.2585   310.6061 C0            1 RES     
   19207 H6         956.1094  -995.7055   303.0733 H6            1 RES     
   19208 H6         957.2215  -994.3764   303.1783 H6            1 RES     
   19209 H6         958.6821  -995.9266   304.7012 H6            1 RES     
   19210 H6         959.8558  -996.7634   302.8504 H6            1 RES     
   19211 H6         959.2298  -995.1661   302.3780 H6            1 RES     
   19212 H6         958.2055  -997.8947   301.3974 H6            1 RES     
   19213 H6         959.3416  -996.8158   300.5716 H6            1 RES     
   19214 H6         956.3666  -996.2444   301.0527 H6            1 RES     
   19215 H6         957.1638  -996.6751   299.5353 H6            1 RES     
   19216 H6         957.6010  -994.0419   301.0955 H6            1 RES     
   19217 H6         956.6272  -994.2822   299.6189 H6            1 RES     
   19218 H6         959.6868  -994.6643   299.8549 H6            1 RES     
   19219 H6         958.7027  -994.9296   298.3599 H6            1 RES     
   19220 H6         957.9847  -992.5272   298.4283 H6            1 RES     
   19221 H6         959.7820  -992.6830   298.3751 H6            1 RES     
   19222 H6         958.9622  -992.2784   299.9306 H6            1 RES     
   19223 H6         958.6119  -998.3367   304.0748 H6            1 RES     
   19224 H6         956.9797  -998.1283   303.3393 H6            1 RES     
   19225 H6         957.7707  -997.6530   306.2648 H6            1 RES     
   19226 H6         956.0792  -997.5763   305.5618 H6            1 RES     
   19227 H6         956.2194  -999.9819   305.0070 H6            1 RES     
   19228 H6         957.9024 -1000.0461   305.6720 H6            1 RES     
   19229 H6         957.0625  -999.3157   307.9116 H6            1 RES     
   19230 H6         955.3831  -999.2401   307.2441 H6            1 RES     
   19231 H6         955.4739 -1001.7065   306.7602 H6            1 RES     
   19232 H6         957.1698 -1001.7562   307.3678 H6            1 RES     
   19233 H6         956.4284 -1001.0845   309.6410 H6            1 RES     
   19234 H6         955.6525 -1002.6070   309.0698 H6            1 RES     
   19235 H6         953.5716 -1001.3341   308.4652 H6            1 RES     
   19236 H6         954.3178  -999.8143   309.0996 H6            1 RES     
   19237 H6         952.8255 -1000.8236   310.7771 H6            1 RES     
   19238 H6         953.7725 -1002.3596   310.7389 H6            1 RES     
   19239 H6         954.5351 -1000.8364   311.3564 H6            1 RES     
   19240 C0         962.4980  -997.9234   315.9773 C0            1 RES     
   19241 C1         961.3306  -998.0982   314.9975 C1            1 RES     
   19242 C1         960.5038  -999.1120   315.3368 C1            1 RES     
   19243 S2         959.2232  -999.2725   314.2739 S2            1 RES     
   19244 C1         959.7472  -997.9580   313.3211 C1            1 RES     
   19245 C1         960.9203  -997.4109   313.8536 C1            1 RES     
   19246 C1         961.0055  -999.7157   316.5177 C1            1 RES     
   19247 C1         962.1593  -999.0968   316.9048 C1            1 RES     
   19248 C1         962.7234  -999.6757   318.0461 C1            1 RES     
   19249 C1         961.9501 -1000.7728   318.5053 C1            1 RES     
   19250 S2         960.5740 -1000.9697   317.5143 S2            1 RES     
   19251 H3         961.4437  -996.5638   313.4326 H3            1 RES     
   19252 H3         963.6401  -999.3218   318.4935 H3            1 RES     
   19253 N4         961.4522 -1003.3452   321.2167 N4            1 RES     
   19254 C1         961.2081 -1002.4693   320.2005 C1            1 RES     
   19255 C1         962.2477 -1001.6967   319.6326 C1            1 RES     
   19256 C1         963.5424 -1001.8868   320.1484 C1            1 RES     
   19257 N4         964.6561 -1001.2638   319.6869 N4            1 RES     
   19258 S2         965.8496 -1001.9139   320.6275 S2            1 RES     
   19259 N4         965.0445 -1002.9668   321.6127 N4            1 RES     
   19260 C1         963.7628 -1002.8233   321.1980 C1            1 RES     
   19261 C1         962.6977 -1003.5405   321.7260 C1            1 RES     
   19262 H5         960.1905 -1002.3717   319.8477 H5            1 RES     
   19263 C0         962.1888  -996.5392   316.6660 C0            1 RES     
   19264 C0         962.8536  -995.9035   317.9376 C0            1 RES     
   19265 C0         961.8871  -994.8191   318.5405 C0            1 RES     
   19266 C0         961.7469  -993.4253   317.8597 C0            1 RES     
   19267 C0         961.1093  -993.3317   316.4579 C0            1 RES     
   19268 C0         959.7020  -993.9448   316.3238 C0            1 RES     
   19269 C0         958.6549  -993.2565   317.2094 C0            1 RES     
   19270 C0         957.2728  -993.8682   316.9913 C0            1 RES     
   19271 C0         964.2496  -995.2421   317.7556 C0            1 RES     
   19272 C0         965.4442  -996.1859   317.8577 C0            1 RES     
   19273 C0         966.7526  -995.4391   317.5395 C0            1 RES     
   19274 C0         967.9731  -996.3722   317.5752 C0            1 RES     
   19275 C0         969.2197  -995.6574   317.0253 C0            1 RES     
   19276 C0         970.4365  -996.5835   316.8432 C0            1 RES     
   19277 C0         970.2130  -997.6453   315.7479 C0            1 RES     
   19278 C0         971.4695  -998.4746   315.5023 C0            1 RES     
   19279 H6         962.2001  -995.7901   315.8619 H6            1 RES     
   19280 H6         961.1334  -996.6729   316.9907 H6            1 RES     
   19281 H6         962.9036  -996.6858   318.7275 H6            1 RES     
   19282 H6         962.2766  -994.5956   319.5593 H6            1 RES     
   19283 H6         960.8780  -995.2543   318.7046 H6            1 RES     
   19284 H6         962.7431  -992.9370   317.8132 H6            1 RES     
   19285 H6         961.1320  -992.8003   318.5416 H6            1 RES     
   19286 H6         961.7815  -993.7797   315.7076 H6            1 RES     
   19287 H6         961.0482  -992.2567   316.1805 H6            1 RES     
   19288 H6         959.7266  -995.0255   316.5556 H6            1 RES     
   19289 H6         959.3891  -993.8370   315.2620 H6            1 RES     
   19290 H6         958.9211  -993.3706   318.2807 H6            1 RES     
   19291 H6         958.6117  -992.1741   316.9601 H6            1 RES     
   19292 H6         956.9624  -993.7562   315.9305 H6            1 RES     
   19293 H6         956.5302  -993.3514   317.6350 H6            1 RES     
   19294 H6         957.2829  -994.9474   317.2554 H6            1 RES     
   19295 H6         964.4231  -994.5170   318.5826 H6            1 RES     
   19296 H6         964.2507  -994.6697   316.8017 H6            1 RES     
   19297 H6         965.4878  -996.6339   318.8744 H6            1 RES     
   19298 H6         965.3137  -996.9839   317.1395 H6            1 RES     
   19299 H6         966.6547  -995.0241   316.5113 H6            1 RES     
   19300 H6         966.9088  -994.5955   318.2467 H6            1 RES     
   19301 H6         968.1563  -996.7408   318.6075 H6            1 RES     
   19302 H6         967.7549  -997.2470   316.9505 H6            1 RES     
   19303 H6         968.9917  -995.2040   316.0350 H6            1 RES     
   19304 H6         969.4876  -994.8341   317.7236 H6            1 RES     
   19305 H6         970.6957  -997.0690   317.8083 H6            1 RES     
   19306 H6         971.2929  -995.9468   316.5307 H6            1 RES     
   19307 H6         969.9344  -997.1430   314.7950 H6            1 RES     
   19308 H6         969.4039  -998.3418   316.0364 H6            1 RES     
   19309 H6         971.2697  -999.2195   314.7051 H6            1 RES     
   19310 H6         972.3070  -997.8215   315.1761 H6            1 RES     
   19311 H6         971.7624  -999.0136   316.4297 H6            1 RES     
   19312 C0         963.8205  -997.9782   315.1103 C0            1 RES     
   19313 C0         965.0427  -998.9156   315.3871 C0            1 RES     
   19314 C0         966.3615  -998.2668   314.8398 C0            1 RES     
   19315 C0         966.6676  -998.2239   313.3222 C0            1 RES     
   19316 C0         965.8182  -997.2881   312.4382 C0            1 RES     
   19317 C0         965.7902  -995.8051   312.8642 C0            1 RES     
   19318 C0         967.1727  -995.1410   312.9023 C0            1 RES     
   19319 C0         967.0504  -993.6662   313.2803 C0            1 RES     
   19320 C0         964.9709 -1000.3706   314.8377 C0            1 RES     
   19321 C0         963.9428 -1001.2644   315.5105 C0            1 RES     
   19322 C0         964.0468 -1002.7217   315.0586 C0            1 RES     
   19323 C0         963.0159 -1003.5667   315.8157 C0            1 RES     
   19324 C0         963.0847 -1005.0413   315.4009 C0            1 RES     
   19325 C0         962.1069 -1005.9284   316.1903 C0            1 RES     
   19326 C0         960.6328 -1005.5622   315.9552 C0            1 RES     
   19327 C0         959.7054 -1006.5132   316.7043 C0            1 RES     
   19328 H6         963.5726  -998.1037   314.0420 H6            1 RES     
   19329 H6         964.1837  -996.9407   315.1771 H6            1 RES     
   19330 H6         965.1817  -998.9781   316.4841 H6            1 RES     
   19331 H6         967.1918  -998.8606   315.2803 H6            1 RES     
   19332 H6         966.4657  -997.2370   315.2211 H6            1 RES     
   19333 H6         966.6357  -999.2499   312.9026 H6            1 RES     
   19334 H6         967.7224  -997.8886   313.2228 H6            1 RES     
   19335 H6         964.7832  -997.6646   312.3744 H6            1 RES     
   19336 H6         966.2263  -997.3442   311.4057 H6            1 RES     
   19337 H6         965.3200  -995.6919   313.8567 H6            1 RES     
   19338 H6         965.1533  -995.2607   312.1326 H6            1 RES     
   19339 H6         967.8169  -995.6383   313.6575 H6            1 RES     
   19340 H6         967.6549  -995.2213   311.9043 H6            1 RES     
   19341 H6         966.4276  -993.1265   312.5348 H6            1 RES     
   19342 H6         968.0574  -993.2003   313.3066 H6            1 RES     
   19343 H6         966.5846  -993.5617   314.2841 H6            1 RES     
   19344 H6         965.9591 -1000.8454   315.0299 H6            1 RES     
   19345 H6         964.7958 -1000.3643   313.7400 H6            1 RES     
   19346 H6         964.1320 -1001.2453   316.6023 H6            1 RES     
   19347 H6         962.9343 -1000.8977   315.2584 H6            1 RES     
   19348 H6         963.8642 -1002.7885   313.9643 H6            1 RES     
   19349 H6         965.0674 -1003.1080   315.2791 H6            1 RES     
   19350 H6         963.2092 -1003.4887   316.9091 H6            1 RES     
   19351 H6         962.0075 -1003.1577   315.5985 H6            1 RES     
   19352 H6         962.8784 -1005.1360   314.3125 H6            1 RES     
   19353 H6         964.1139 -1005.4163   315.5943 H6            1 RES     
   19354 H6         962.3414 -1005.8624   317.2758 H6            1 RES     
   19355 H6         962.2680 -1006.9793   315.8640 H6            1 RES     
   19356 H6         960.4042 -1005.6184   314.8689 H6            1 RES     
   19357 H6         960.4254 -1004.5331   316.3149 H6            1 RES     
   19358 H6         958.6494 -1006.2257   316.5164 H6            1 RES     
   19359 H6         959.8581 -1007.5563   316.3548 H6            1 RES     
   19360 H6         959.9001 -1006.4601   317.7968 H6            1 RES     
   19361 C0         964.2027 -1005.7704   326.4142 C0            1 RES     
   19362 C1         963.6403 -1005.5100   325.0108 C1            1 RES     
   19363 C1         963.0149 -1006.5862   324.4845 C1            1 RES     
   19364 S2         962.3855 -1006.2779   322.9665 S2            1 RES     
   19365 C1         962.9354 -1004.6630   322.9804 C1            1 RES     
   19366 C1         963.6042 -1004.3892   324.1790 C1            1 RES     
   19367 C1         963.0954 -1007.6470   325.4220 C1            1 RES     
   19368 C1         963.7919 -1007.2439   326.5248 C1            1 RES     
   19369 C1         963.9378 -1008.2633   327.4712 C1            1 RES     
   19370 C1         963.3280 -1009.4667   327.0327 C1            1 RES     
   19371 S2         962.5933 -1009.2256   325.5107 S2            1 RES     
   19372 H3         964.0388 -1003.4316   324.4296 H3            1 RES     
   19373 H3         964.4645 -1008.1291   328.4040 H3            1 RES     
   19374 N4         962.3533 -1012.9978   327.9262 N4            1 RES     
   19375 C1         962.3633 -1011.7629   327.3480 C1            1 RES     
   19376 C1         963.3290 -1010.7935   327.7056 C1            1 RES     
   19377 C1         964.2863 -1011.1667   328.6662 C1            1 RES     
   19378 N4         965.3071 -1010.3771   329.0855 N4            1 RES     
   19379 S2         966.1051 -1011.3548   330.1529 S2            1 RES     
   19380 N4         965.2337 -1012.7575   330.1286 N4            1 RES     
   19381 C1         964.2558 -1012.4713   329.2356 C1            1 RES     
   19382 C1         963.2716 -1013.3738   328.8558 C1            1 RES     
   19383 H5         961.6009 -1011.5395   326.6143 H5            1 RES     
   19384 C0         963.3112 -1004.8548   327.3375 C0            1 RES     
   19385 C0         963.2010 -1004.8478   328.9030 C0            1 RES     
   19386 C0         961.8430 -1004.1757   329.3241 C0            1 RES     
   19387 C0         961.6782 -1002.6282   329.2591 C0            1 RES     
   19388 C0         961.6941 -1001.9255   327.8856 C0            1 RES     
   19389 C0         960.6672 -1002.4436   326.8603 C0            1 RES     
   19390 C0         959.2129 -1002.2543   327.3113 C0            1 RES     
   19391 C0         958.2433 -1002.7326   326.2327 C0            1 RES     
   19392 C0         964.3407 -1004.1439   329.6936 C0            1 RES     
   19393 C0         965.5653 -1005.0044   329.9906 C0            1 RES     
   19394 C0         966.6660 -1004.1647   330.6648 C0            1 RES     
   19395 C0         967.9389 -1004.9850   330.9263 C0            1 RES     
   19396 C0         969.0916 -1004.0705   331.3763 C0            1 RES     
   19397 C0         970.4521 -1004.7861   331.4680 C0            1 RES     
   19398 C0         970.9742 -1005.2427   330.0910 C0            1 RES     
   19399 C0         972.3733 -1005.8424   330.1895 C0            1 RES     
   19400 H6         963.4844 -1003.8230   327.0009 H6            1 RES     
   19401 H6         962.2830 -1005.1449   327.0277 H6            1 RES     
   19402 H6         963.0953 -1005.9013   329.2454 H6            1 RES     
   19403 H6         961.6976 -1004.4281   330.3986 H6            1 RES     
   19404 H6         960.9951 -1004.6609   328.7946 H6            1 RES     
   19405 H6         962.4522 -1002.1491   329.8949 H6            1 RES     
   19406 H6         960.7029 -1002.3933   329.7359 H6            1 RES     
   19407 H6         962.7063 -1001.9702   327.4512 H6            1 RES     
   19408 H6         961.5029 -1000.8429   328.0526 H6            1 RES     
   19409 H6         960.8472 -1003.5114   326.6376 H6            1 RES     
   19410 H6         960.8190 -1001.8745   325.9169 H6            1 RES     
   19411 H6         959.0177 -1002.8343   328.2370 H6            1 RES     
   19412 H6         959.0237 -1001.1774   327.5118 H6            1 RES     
   19413 H6         958.3959 -1002.1601   325.2929 H6            1 RES     
   19414 H6         957.1985 -1002.5798   326.5759 H6            1 RES     
   19415 H6         958.3965 -1003.8141   326.0289 H6            1 RES     
   19416 H6         963.9688 -1003.8674   330.7061 H6            1 RES     
   19417 H6         964.6106 -1003.2022   329.1665 H6            1 RES     
   19418 H6         965.2783 -1005.8625   330.6366 H6            1 RES     
   19419 H6         965.9459 -1005.3940   329.0563 H6            1 RES     
   19420 H6         966.9183 -1003.3320   329.9705 H6            1 RES     
   19421 H6         966.3017 -1003.7288   331.6205 H6            1 RES     
   19422 H6         967.7483 -1005.7763   331.6830 H6            1 RES     
   19423 H6         968.2215 -1005.4875   329.9931 H6            1 RES     
   19424 H6         969.2050 -1003.2237   330.6634 H6            1 RES     
   19425 H6         968.8335 -1003.6461   332.3716 H6            1 RES     
   19426 H6         970.3842 -1005.6495   332.1638 H6            1 RES     
   19427 H6         971.1816 -1004.0576   331.8845 H6            1 RES     
   19428 H6         971.0159 -1004.3702   329.4017 H6            1 RES     
   19429 H6         970.3103 -1006.0126   329.6557 H6            1 RES     
   19430 H6         972.7143 -1006.1506   329.1801 H6            1 RES     
   19431 H6         973.0882 -1005.0934   330.5924 H6            1 RES     
   19432 H6         972.3636 -1006.7356   330.8516 H6            1 RES     
   19433 C0         965.7392 -1005.3971   326.3557 C0            1 RES     
   19434 C0         966.9123 -1006.3302   326.8056 C0            1 RES     
   19435 C0         968.1426 -1005.4741   327.2673 C0            1 RES     
   19436 C0         969.0441 -1004.7427   326.2422 C0            1 RES     
   19437 C0         968.4549 -1003.5279   325.4966 C0            1 RES     
   19438 C0         967.8970 -1002.3988   326.3887 C0            1 RES     
   19439 C0         968.9310 -1001.7924   327.3464 C0            1 RES     
   19440 C0         968.3130 -1000.6511   328.1518 C0            1 RES     
   19441 C0         967.4286 -1007.3807   325.7790 C0            1 RES     
   19442 C0         966.4572 -1008.5054   325.4627 C0            1 RES     
   19443 C0         967.0862 -1009.5980   324.5972 C0            1 RES     
   19444 C0         966.0650 -1010.7173   324.3643 C0            1 RES     
   19445 C0         966.6518 -1011.8430   323.5042 C0            1 RES     
   19446 C0         965.6733 -1013.0132   323.3063 C0            1 RES     
   19447 C0         964.3982 -1012.6140   322.5465 C0            1 RES     
   19448 C0         963.4960 -1013.8218   322.3169 C0            1 RES     
   19449 H6         966.0060 -1005.0316   325.3489 H6            1 RES     
   19450 H6         965.7815 -1004.4940   326.9845 H6            1 RES     
   19451 H6         966.5828 -1006.8788   327.7096 H6            1 RES     
   19452 H6         968.8221 -1006.1838   327.7875 H6            1 RES     
   19453 H6         967.8270 -1004.7259   328.0139 H6            1 RES     
   19454 H6         969.4383 -1005.4684   325.5022 H6            1 RES     
   19455 H6         969.9281 -1004.3746   326.8061 H6            1 RES     
   19456 H6         967.6673 -1003.8583   324.7985 H6            1 RES     
   19457 H6         969.2631 -1003.1017   324.8634 H6            1 RES     
   19458 H6         967.0380 -1002.7575   326.9823 H6            1 RES     
   19459 H6         967.5219 -1001.5971   325.7150 H6            1 RES     
   19460 H6         969.2913 -1002.5626   328.0602 H6            1 RES     
   19461 H6         969.7950 -1001.4017   326.7670 H6            1 RES     
   19462 H6         967.9571  -999.8471   327.4723 H6            1 RES     
   19463 H6         969.0709 -1000.2247   328.8414 H6            1 RES     
   19464 H6         967.4551 -1001.0225   328.7531 H6            1 RES     
   19465 H6         968.3232 -1007.8684   326.2271 H6            1 RES     
   19466 H6         967.7402 -1006.8827   324.8354 H6            1 RES     
   19467 H6         966.1544 -1008.9777   326.4184 H6            1 RES     
   19468 H6         965.5961 -1008.0874   324.9161 H6            1 RES     
   19469 H6         967.4073 -1009.1669   323.6243 H6            1 RES     
   19470 H6         967.9762 -1010.0189   325.1173 H6            1 RES     
   19471 H6         965.7512 -1011.1378   325.3460 H6            1 RES     
   19472 H6         965.1791 -1010.2774   323.8614 H6            1 RES     
   19473 H6         966.9562 -1011.4400   322.5137 H6            1 RES     
   19474 H6         967.5580 -1012.2413   324.0115 H6            1 RES     
   19475 H6         965.4016 -1013.4398   324.2972 H6            1 RES     
   19476 H6         966.2023 -1013.7989   322.7236 H6            1 RES     
   19477 H6         964.6730 -1012.1781   321.5616 H6            1 RES     
   19478 H6         963.8197 -1011.8639   323.1244 H6            1 RES     
   19479 H6         962.5848 -1013.5047   321.7671 H6            1 RES     
   19480 H6         964.0257 -1014.5904   321.7150 H6            1 RES     
   19481 H6         963.1896 -1014.2641   323.2889 H6            1 RES     
   19482 C0         963.1261 -1017.4477   332.4053 C0            1 RES     
   19483 C1         963.1687 -1016.5937   331.1315 C1            1 RES     
   19484 C1         963.1015 -1017.3296   329.9999 C1            1 RES     
   19485 S2         963.1229 -1016.3826   328.6222 S2            1 RES     
   19486 C1         963.2135 -1014.9365   329.5227 C1            1 RES     
   19487 C1         963.2239 -1015.2191   330.8934 C1            1 RES     
   19488 C1         963.0260 -1018.6975   330.3656 C1            1 RES     
   19489 C1         963.0704 -1018.8209   331.7246 C1            1 RES     
   19490 C1         963.0384 -1020.1544   332.1450 C1            1 RES     
   19491 C1         962.9779 -1021.0431   331.0409 C1            1 RES     
   19492 S2         962.9249 -1020.1566   329.5829 S2            1 RES     
   19493 H3         963.2695 -1014.4687   331.6703 H3            1 RES     
   19494 H3         963.0707 -1020.4446   333.1844 H3            1 RES     
   19495 N4         962.5863 -1024.6178   329.9072 N4            1 RES     
   19496 C1         962.5470 -1023.2550   329.9344 C1            1 RES     
   19497 C1         963.0084 -1022.5303   331.0578 C1            1 RES     
   19498 C1         963.5257 -1023.2756   332.1328 C1            1 RES     
   19499 N4         964.0517 -1022.7379   333.2622 N4            1 RES     
   19500 S2         964.5282 -1024.0741   334.1104 S2            1 RES     
   19501 N4         964.1106 -1025.3337   333.1273 N4            1 RES     
   19502 C1         963.5674 -1024.6970   332.0619 C1            1 RES     
   19503 C1         963.0833 -1025.3524   330.9378 C1            1 RES     
   19504 H5         962.1393 -1022.7415   329.0745 H5            1 RES     
   19505 C0         961.7376 -1017.0692   333.0491 C0            1 RES     
   19506 C0         960.9750 -1017.7734   334.2262 C0            1 RES     
   19507 C0         959.4501 -1017.3955   334.1555 C0            1 RES     
   19508 C0         958.9659 -1015.9901   334.6207 C0            1 RES     
   19509 C0         959.3958 -1014.7421   333.8219 C0            1 RES     
   19510 C0         959.0572 -1014.7638   332.3189 C0            1 RES     
   19511 C0         957.5501 -1014.8322   332.0388 C0            1 RES     
   19512 C0         957.2747 -1014.7931   330.5372 C0            1 RES     
   19513 C0         961.4677 -1017.4773   335.6715 C0            1 RES     
   19514 C0         962.6161 -1018.3508   336.1681 C0            1 RES     
   19515 C0         963.0919 -1017.8818   337.5554 C0            1 RES     
   19516 C0         964.2879 -1018.7025   338.0632 C0            1 RES     
   19517 C0         964.8865 -1018.0642   339.3288 C0            1 RES     
   19518 C0         966.2062 -1018.7128   339.7861 C0            1 RES     
   19519 C0         967.3555 -1018.4852   338.7839 C0            1 RES     
   19520 C0         968.6786 -1019.0326   339.3100 C0            1 RES     
   19521 H6         961.7866 -1015.9930   333.2669 H6            1 RES     
   19522 H6         961.0398 -1017.2113   332.1946 H6            1 RES     
   19523 H6         960.9877 -1018.8700   334.0374 H6            1 RES     
   19524 H6         958.9269 -1018.1098   334.8304 H6            1 RES     
   19525 H6         959.0494 -1017.6081   333.1411 H6            1 RES     
   19526 H6         959.2582 -1015.8328   335.6803 H6            1 RES     
   19527 H6         957.8556 -1016.0186   334.6113 H6            1 RES     
   19528 H6         960.4753 -1014.5625   333.9559 H6            1 RES     
   19529 H6         958.9006 -1013.8567   334.2772 H6            1 RES     
   19530 H6         959.5628 -1015.6111   331.8202 H6            1 RES     
   19531 H6         959.4551 -1013.8264   331.8720 H6            1 RES     
   19532 H6         957.1245 -1015.7724   332.4465 H6            1 RES     
   19533 H6         957.0438 -1013.9670   332.5191 H6            1 RES     
   19534 H6         957.6709 -1013.8541   330.0948 H6            1 RES     
   19535 H6         956.1799 -1014.8359   330.3575 H6            1 RES     
   19536 H6         957.7521 -1015.6617   330.0350 H6            1 RES     
   19537 H6         960.6473 -1017.6971   336.3915 H6            1 RES     
   19538 H6         961.7035 -1016.3931   335.7521 H6            1 RES     
   19539 H6         962.2950 -1019.4146   336.2046 H6            1 RES     
   19540 H6         963.4379 -1018.2671   335.4701 H6            1 RES     
   19541 H6         963.4092 -1016.8197   337.4544 H6            1 RES     
   19542 H6         962.2643 -1017.9337   338.2960 H6            1 RES     
   19543 H6         963.9882 -1019.7545   338.2591 H6            1 RES     
   19544 H6         965.0504 -1018.7221   337.2748 H6            1 RES     
   19545 H6         965.0870 -1016.9843   339.1510 H6            1 RES     
   19546 H6         964.1376 -1018.1418   340.1475 H6            1 RES     
   19547 H6         966.0568 -1019.7988   339.9662 H6            1 RES     
   19548 H6         966.4936 -1018.2348   340.7482 H6            1 RES     
   19549 H6         967.4773 -1017.3947   338.5997 H6            1 RES     
   19550 H6         967.1434 -1018.9900   337.8230 H6            1 RES     
   19551 H6         969.4783 -1018.8431   338.5651 H6            1 RES     
   19552 H6         968.9541 -1018.5306   340.2621 H6            1 RES     
   19553 H6         968.6013 -1020.1286   339.4804 H6            1 RES     
   19554 C0         964.4046 -1017.0534   333.2501 C0            1 RES     
   19555 C0         965.4602 -1018.0619   333.8135 C0            1 RES     
   19556 C0         966.1356 -1017.4793   335.1036 C0            1 RES     
   19557 C0         967.1845 -1016.3430   335.0195 C0            1 RES     
   19558 C0         966.6976 -1014.9362   334.6164 C0            1 RES     
   19559 C0         965.5631 -1014.3457   335.4801 C0            1 RES     
   19560 C0         965.9157 -1014.2144   336.9675 C0            1 RES     
   19561 C0         964.7626 -1013.5751   337.7388 C0            1 RES     
   19562 C0         966.5968 -1018.5227   332.8544 C0            1 RES     
   19563 C0         966.1497 -1019.4045   331.7007 C0            1 RES     
   19564 C0         967.3265 -1019.9730   330.9065 C0            1 RES     
   19565 C0         966.7992 -1020.8890   329.7962 C0            1 RES     
   19566 C0         967.9446 -1021.4904   328.9728 C0            1 RES     
   19567 C0         967.4518 -1022.4666   327.8910 C0            1 RES     
   19568 C0         966.5656 -1021.7962   326.8292 C0            1 RES     
   19569 C0         966.1619 -1022.7899   325.7451 C0            1 RES     
   19570 H6         964.9782 -1016.2660   332.7309 H6            1 RES     
   19571 H6         963.9599 -1016.5315   334.1119 H6            1 RES     
   19572 H6         964.9190 -1018.9674   334.1510 H6            1 RES     
   19573 H6         966.6770 -1018.3318   335.5684 H6            1 RES     
   19574 H6         965.3650 -1017.1571   335.8241 H6            1 RES     
   19575 H6         968.0156 -1016.6465   334.3509 H6            1 RES     
   19576 H6         967.6300 -1016.2497   336.0333 H6            1 RES     
   19577 H6         966.3844 -1014.9331   333.5587 H6            1 RES     
   19578 H6         967.5712 -1014.2514   334.6768 H6            1 RES     
   19579 H6         964.6459 -1014.9535   335.3900 H6            1 RES     
   19580 H6         965.3308 -1013.3348   335.0783 H6            1 RES     
   19581 H6         966.1104 -1015.2157   337.4058 H6            1 RES     
   19582 H6         966.8236 -1013.5843   337.0836 H6            1 RES     
   19583 H6         964.5490 -1012.5591   337.3427 H6            1 RES     
   19584 H6         965.0306 -1013.4894   338.8124 H6            1 RES     
   19585 H6         963.8461 -1014.1978   337.6503 H6            1 RES     
   19586 H6         967.3040 -1019.1397   333.4527 H6            1 RES     
   19587 H6         967.1512 -1017.6447   332.4575 H6            1 RES     
   19588 H6         965.5918 -1020.2648   332.1211 H6            1 RES     
   19589 H6         965.5301 -1018.8043   331.0145 H6            1 RES     
   19590 H6         967.9175 -1019.1413   330.4655 H6            1 RES     
   19591 H6         967.9832 -1020.5631   331.5848 H6            1 RES     
   19592 H6         966.2082 -1021.7150   330.2516 H6            1 RES     
   19593 H6         966.1342 -1020.2897   329.1406 H6            1 RES     
   19594 H6         968.5352 -1020.6762   328.4991 H6            1 RES     
   19595 H6         968.6155 -1022.0542   329.6578 H6            1 RES     
   19596 H6         966.8952 -1023.3013   328.3719 H6            1 RES     
   19597 H6         968.3481 -1022.8916   327.3883 H6            1 RES     
   19598 H6         967.1202 -1020.9559   326.3582 H6            1 RES     
   19599 H6         965.6365 -1021.4019   327.2905 H6            1 RES     
   19600 H6         965.5239 -1022.2793   324.9932 H6            1 RES     
   19601 H6         967.0629 -1023.1909   325.2343 H6            1 RES     
   19602 H6         965.5867 -1023.6307   326.1883 H6            1 RES     
   19603 C0         962.4175 -1030.5932   332.0813 C0            1 RES     
   19604 C1         962.7925 -1029.2548   331.4320 C1            1 RES     
   19605 C1         963.3892 -1029.4008   330.2282 C1            1 RES     
   19606 S2         963.7676 -1027.9329   329.5228 S2            1 RES     
   19607 C1         963.1208 -1027.0486   330.8305 C1            1 RES     
   19608 C1         962.6151 -1027.9202   331.8018 C1            1 RES     
   19609 C1         963.4931 -1030.7875   329.9511 C1            1 RES     
   19610 C1         962.9842 -1031.5110   330.9912 C1            1 RES     
   19611 C1         963.0947 -1032.8909   330.7914 C1            1 RES     
   19612 C1         963.7218 -1033.1854   329.5536 C1            1 RES     
   19613 S2         964.0838 -1031.7368   328.7257 S2            1 RES     
   19614 H3         962.1468 -1027.6014   332.7226 H3            1 RES     
   19615 H3         962.7506 -1033.6189   331.5106 H3            1 RES     
   19616 N4         964.7107 -1035.8689   327.0964 N4            1 RES     
   19617 C1         964.3409 -1034.6671   327.6238 C1            1 RES     
   19618 C1         964.0948 -1034.5184   329.0086 C1            1 RES     
   19619 C1         964.2675 -1035.6572   329.8159 C1            1 RES     
   19620 N4         964.1198 -1035.6764   331.1647 N4            1 RES     
   19621 S2         964.4935 -1037.2405   331.5466 S2            1 RES     
   19622 N4         964.8454 -1037.9286   330.0871 N4            1 RES     
   19623 C1         964.6718 -1036.8915   329.2328 C1            1 RES     
   19624 C1         964.8820 -1036.9786   327.8632 C1            1 RES     
   19625 H5         964.2277 -1033.8296   326.9490 H5            1 RES     
   19626 C0         960.8411 -1030.5785   332.0574 C0            1 RES     
   19627 C0         959.8426 -1031.7561   332.3386 C0            1 RES     
   19628 C0         958.4505 -1031.4220   331.6876 C0            1 RES     
   19629 C0         957.4959 -1030.3904   332.3589 C0            1 RES     
   19630 C0         957.9140 -1028.9066   332.4222 C0            1 RES     
   19631 C0         958.2615 -1028.2541   331.0703 C0            1 RES     
   19632 C0         957.0800 -1028.2227   330.0917 C0            1 RES     
   19633 C0         957.4676 -1027.5151   328.7951 C0            1 RES     
   19634 C0         959.5890 -1032.1344   333.8259 C0            1 RES     
   19635 C0         960.5891 -1033.1116   334.4369 C0            1 RES     
   19636 C0         960.3043 -1033.3100   335.9372 C0            1 RES     
   19637 C0         961.3287 -1034.2440   336.6004 C0            1 RES     
   19638 C0         961.1626 -1034.2335   338.1300 C0            1 RES     
   19639 C0         962.2756 -1034.9884   338.8803 C0            1 RES     
   19640 C0         963.6511 -1034.3061   338.7404 C0            1 RES     
   19641 C0         964.7137 -1035.0018   339.5852 C0            1 RES     
   19642 H6         960.5357 -1029.7164   332.6667 H6            1 RES     
   19643 H6         960.6281 -1030.3347   330.9932 H6            1 RES     
   19644 H6         960.1944 -1032.6482   331.7742 H6            1 RES     
   19645 H6         957.8766 -1032.3761   331.6875 H6            1 RES     
   19646 H6         958.5817 -1031.1620   330.6153 H6            1 RES     
   19647 H6         957.2641 -1030.7225   333.3927 H6            1 RES     
   19648 H6         956.5367 -1030.4368   331.8009 H6            1 RES     
   19649 H6         958.7575 -1028.7823   333.1212 H6            1 RES     
   19650 H6         957.0777 -1028.3344   332.8799 H6            1 RES     
   19651 H6         959.1163 -1028.7725   330.5983 H6            1 RES     
   19652 H6         958.5760 -1027.2070   331.2744 H6            1 RES     
   19653 H6         956.7585 -1029.2551   329.8424 H6            1 RES     
   19654 H6         956.2280 -1027.6801   330.5558 H6            1 RES     
   19655 H6         957.7784 -1026.4688   329.0025 H6            1 RES     
   19656 H6         956.5976 -1027.4970   328.1055 H6            1 RES     
   19657 H6         958.3043 -1028.0516   328.2985 H6            1 RES     
   19658 H6         958.6188 -1032.6747   333.9072 H6            1 RES     
   19659 H6         959.5030 -1031.1988   334.4216 H6            1 RES     
   19660 H6         960.5459 -1034.0840   333.8996 H6            1 RES     
   19661 H6         961.5835 -1032.7025   334.3211 H6            1 RES     
   19662 H6         960.3719 -1032.3100   336.4214 H6            1 RES     
   19663 H6         959.2791 -1033.7100   336.0958 H6            1 RES     
   19664 H6         961.2337 -1035.2774   336.2030 H6            1 RES     
   19665 H6         962.3342 -1033.8875   336.3451 H6            1 RES     
   19666 H6         961.1565 -1033.1856   338.5043 H6            1 RES     
   19667 H6         960.1791 -1034.6900   338.3784 H6            1 RES     
   19668 H6         962.3267 -1036.0416   338.5304 H6            1 RES     
   19669 H6         962.0046 -1034.9908   339.9588 H6            1 RES     
   19670 H6         963.5764 -1033.2477   339.0754 H6            1 RES     
   19671 H6         963.9937 -1034.3265   337.6891 H6            1 RES     
   19672 H6         965.6836 -1034.4778   339.4627 H6            1 RES     
   19673 H6         964.4309 -1034.9785   340.6594 H6            1 RES     
   19674 H6         964.8344 -1036.0579   339.2589 H6            1 RES     
   19675 C0         963.0821 -1030.5944   333.5173 C0            1 RES     
   19676 C0         964.0048 -1031.7244   334.0836 C0            1 RES     
   19677 C0         963.9086 -1031.7728   335.6483 C0            1 RES     
   19678 C0         964.5907 -1030.6978   336.5301 C0            1 RES     
   19679 C0         964.0020 -1029.2722   336.5194 C0            1 RES     
   19680 C0         962.5038 -1029.1621   336.8731 C0            1 RES     
   19681 C0         962.1492 -1029.7097   338.2617 C0            1 RES     
   19682 C0         960.6624 -1029.5147   338.5526 C0            1 RES     
   19683 C0         965.5145 -1031.6755   333.7062 C0            1 RES     
   19684 C0         965.8233 -1031.9503   332.2441 C0            1 RES     
   19685 C0         967.3237 -1032.0712   331.9740 C0            1 RES     
   19686 C0         967.5521 -1032.3979   330.4938 C0            1 RES     
   19687 C0         969.0453 -1032.5356   330.1729 C0            1 RES     
   19688 C0         969.3061 -1032.9281   328.7087 C0            1 RES     
   19689 C0         968.8233 -1031.8704   327.7034 C0            1 RES     
   19690 C0         969.1671 -1032.2754   326.2739 C0            1 RES     
   19691 H6         963.6165 -1029.6445   333.6922 H6            1 RES     
   19692 H6         962.2037 -1030.5289   334.1783 H6            1 RES     
   19693 H6         963.6039 -1032.6967   333.7364 H6            1 RES     
   19694 H6         964.3870 -1032.7308   335.9475 H6            1 RES     
   19695 H6         962.8530 -1031.8289   335.9632 H6            1 RES     
   19696 H6         965.6727 -1030.6470   336.2926 H6            1 RES     
   19697 H6         964.5272 -1031.0628   337.5778 H6            1 RES     
   19698 H6         964.1767 -1028.7983   335.5387 H6            1 RES     
   19699 H6         964.5768 -1028.6690   337.2553 H6            1 RES     
   19700 H6         961.8852 -1029.6843   336.1224 H6            1 RES     
   19701 H6         962.2312 -1028.0844   336.8346 H6            1 RES     
   19702 H6         962.3713 -1030.7962   338.3143 H6            1 RES     
   19703 H6         962.7434 -1029.1796   339.0369 H6            1 RES     
   19704 H6         960.4025 -1028.4346   338.5297 H6            1 RES     
   19705 H6         960.4204 -1029.9177   339.5580 H6            1 RES     
   19706 H6         960.0472 -1030.0508   337.7978 H6            1 RES     
   19707 H6         966.0250 -1032.4801   334.2815 H6            1 RES     
   19708 H6         965.9587 -1030.7006   334.0027 H6            1 RES     
   19709 H6         965.3618 -1032.9202   331.9712 H6            1 RES     
   19710 H6         965.4307 -1031.1190   331.6360 H6            1 RES     
   19711 H6         967.8296 -1031.1167   332.2359 H6            1 RES     
   19712 H6         967.7497 -1032.8891   332.5978 H6            1 RES     
   19713 H6         967.0388 -1033.3538   330.2455 H6            1 RES     
   19714 H6         967.1070 -1031.5822   329.8873 H6            1 RES     
   19715 H6         969.5689 -1031.5820   330.4022 H6            1 RES     
   19716 H6         969.4747 -1033.3328   330.8190 H6            1 RES     
   19717 H6         968.8141 -1033.9025   328.4936 H6            1 RES     
   19718 H6         970.4036 -1033.0593   328.5862 H6            1 RES     
   19719 H6         969.3081 -1030.8956   327.9273 H6            1 RES     
   19720 H6         967.7221 -1031.7487   327.7656 H6            1 RES     
   19721 H6         968.8075 -1031.4947   325.5708 H6            1 RES     
   19722 H6         970.2665 -1032.3814   326.1566 H6            1 RES     
   19723 H6         968.6762 -1033.2387   326.0179 H6            1 RES     
   19724 C0         965.0605 -1042.1838   326.4170 C0            1 RES     
   19725 C1         965.3456 -1040.6882   326.6057 C1            1 RES     
   19726 C1         966.4127 -1040.2604   325.8952 C1            1 RES     
   19727 S2         966.6939 -1038.6240   326.0915 S2            1 RES     
   19728 C1         965.3635 -1038.4416   327.1436 C1            1 RES     
   19729 C1         964.7164 -1039.6696   327.3238 C1            1 RES     
   19730 C1         966.9507 -1041.3692   325.1939 C1            1 RES     
   19731 C1         966.2366 -1042.4962   325.4836 C1            1 RES     
   19732 C1         966.7459 -1043.6337   324.8489 C1            1 RES     
   19733 C1         967.8893 -1043.3222   324.0692 C1            1 RES     
   19734 S2         968.2127 -1041.6480   324.1540 S2            1 RES     
   19735 H3         963.8406 -1039.8123   327.9413 H3            1 RES     
   19736 H3         966.3129 -1044.6159   324.9652 H3            1 RES     
   19737 N4         970.4342 -1044.5812   321.5883 N4            1 RES     
   19738 C1         969.6016 -1043.7566   322.2854 C1            1 RES     
   19739 C1         968.7634 -1044.2558   323.3093 C1            1 RES     
   19740 C1         968.8421 -1045.6323   323.5876 C1            1 RES     
   19741 N4         968.1450 -1046.2627   324.5664 N4            1 RES     
   19742 S2         968.6811 -1047.8215   324.4449 S2            1 RES     
   19743 N4         969.7717 -1047.7670   323.2060 N4            1 RES     
   19744 C1         969.7363 -1046.4600   322.8511 C1            1 RES     
   19745 C1         970.5221 -1045.9135   321.8454 C1            1 RES     
   19746 H5         969.5902 -1042.7073   322.0238 H5            1 RES     
   19747 C0         963.6900 -1042.1958   325.6377 C0            1 RES     
   19748 C0         962.9780 -1043.3958   324.9192 C0            1 RES     
   19749 C0         961.9588 -1042.8353   323.8607 C0            1 RES     
   19750 C0         960.5947 -1042.2408   324.3208 C0            1 RES     
   19751 C0         960.5804 -1040.9369   325.1455 C0            1 RES     
   19752 C0         961.3028 -1039.7358   324.5054 C0            1 RES     
   19753 C0         960.6786 -1039.2923   323.1757 C0            1 RES     
   19754 C0         961.3996 -1038.0663   322.6197 C0            1 RES     
   19755 C0         962.2150 -1044.4114   325.8168 C0            1 RES     
   19756 C0         963.0615 -1045.5362   326.4055 C0            1 RES     
   19757 C0         962.2230 -1046.3979   327.3674 C0            1 RES     
   19758 C0         963.0583 -1047.5073   328.0256 C0            1 RES     
   19759 C0         962.2614 -1048.1934   329.1488 C0            1 RES     
   19760 C0         963.0946 -1049.1804   329.9873 C0            1 RES     
   19761 C0         964.1935 -1048.4774   330.8090 C0            1 RES     
   19762 C0         964.9286 -1049.4554   331.7200 C0            1 RES     
   19763 H6         962.9595 -1041.7096   326.2994 H6            1 RES     
   19764 H6         963.8977 -1041.5021   324.7934 H6            1 RES     
   19765 H6         963.7371 -1043.9279   324.3036 H6            1 RES     
   19766 H6         961.6843 -1043.6990   323.2140 H6            1 RES     
   19767 H6         962.4669 -1042.1156   323.1835 H6            1 RES     
   19768 H6         960.0322 -1043.0097   324.8911 H6            1 RES     
   19769 H6         960.0046 -1042.0518   323.3990 H6            1 RES     
   19770 H6         960.9911 -1041.1229   326.1516 H6            1 RES     
   19771 H6         959.5194 -1040.6527   325.3185 H6            1 RES     
   19772 H6         962.3732 -1039.9651   324.3509 H6            1 RES     
   19773 H6         961.2421 -1038.8873   325.2219 H6            1 RES     
   19774 H6         960.7490 -1040.1074   322.4260 H6            1 RES     
   19775 H6         959.6083 -1039.0378   323.3348 H6            1 RES     
   19776 H6         961.3343 -1037.2200   323.3367 H6            1 RES     
   19777 H6         960.9279 -1037.7581   321.6629 H6            1 RES     
   19778 H6         962.4689 -1038.3009   322.4301 H6            1 RES     
   19779 H6         961.4613 -1044.9520   325.2008 H6            1 RES     
   19780 H6         961.6646 -1043.8485   326.6028 H6            1 RES     
   19781 H6         963.4831 -1046.1612   325.5883 H6            1 RES     
   19782 H6         963.8823 -1045.0964   326.9556 H6            1 RES     
   19783 H6         961.8388 -1045.7238   328.1655 H6            1 RES     
   19784 H6         961.3551 -1046.8497   326.8395 H6            1 RES     
   19785 H6         963.3897 -1048.2512   327.2695 H6            1 RES     
   19786 H6         963.9604 -1047.0510   328.4514 H6            1 RES     
   19787 H6         961.8481 -1047.4285   329.8432 H6            1 RES     
   19788 H6         961.4052 -1048.7352   328.6897 H6            1 RES     
   19789 H6         963.5381 -1049.9600   329.3318 H6            1 RES     
   19790 H6         962.4006 -1049.6763   330.7006 H6            1 RES     
   19791 H6         963.7345 -1047.6868   331.4434 H6            1 RES     
   19792 H6         964.9440 -1048.0123   330.1430 H6            1 RES     
   19793 H6         965.7034 -1048.9107   332.2972 H6            1 RES     
   19794 H6         964.2199 -1049.9268   332.4341 H6            1 RES     
   19795 H6         965.4235 -1050.2467   331.1158 H6            1 RES     
   19796 C0         965.0317 -1042.8191   327.8659 C0            1 RES     
   19797 C0         965.8659 -1044.0616   328.3231 C0            1 RES     
   19798 C0         965.1292 -1044.8145   329.4850 C0            1 RES     
   19799 C0         965.0951 -1044.2391   330.9225 C0            1 RES     
   19800 C0         964.2466 -1042.9767   331.1773 C0            1 RES     
   19801 C0         962.7614 -1043.0726   330.7690 C0            1 RES     
   19802 C0         961.9921 -1044.1969   331.4749 C0            1 RES     
   19803 C0         960.5234 -1044.1885   331.0556 C0            1 RES     
   19804 C0         967.3335 -1043.8129   328.7797 C0            1 RES     
   19805 C0         968.2894 -1043.3897   327.6770 C0            1 RES     
   19806 C0         969.7436 -1043.3410   328.1477 C0            1 RES     
   19807 C0         970.6493 -1042.9578   326.9718 C0            1 RES     
   19808 C0         972.1227 -1042.9014   327.3927 C0            1 RES     
   19809 C0         973.0655 -1042.5833   326.2197 C0            1 RES     
   19810 C0         972.8192 -1041.1966   325.6041 C0            1 RES     
   19811 C0         973.8226 -1040.9035   324.4938 C0            1 RES     
   19812 H6         965.1985 -1042.0390   328.6289 H6            1 RES     
   19813 H6         963.9681 -1043.0796   327.9827 H6            1 RES     
   19814 H6         965.8943 -1044.7807   327.4812 H6            1 RES     
   19815 H6         965.6477 -1045.7930   329.5830 H6            1 RES     
   19816 H6         964.0866 -1045.0310   329.1973 H6            1 RES     
   19817 H6         966.1292 -1044.0618   331.2816 H6            1 RES     
   19818 H6         964.6817 -1045.0398   331.5728 H6            1 RES     
   19819 H6         964.7029 -1042.1066   330.6756 H6            1 RES     
   19820 H6         964.2930 -1042.7584   332.2664 H6            1 RES     
   19821 H6         962.6637 -1043.2128   329.6783 H6            1 RES     
   19822 H6         962.2834 -1042.1005   331.0216 H6            1 RES     
   19823 H6         962.4221 -1045.1843   331.2054 H6            1 RES     
   19824 H6         962.0561 -1044.0612   332.5760 H6            1 RES     
   19825 H6         960.0493 -1043.2210   331.3276 H6            1 RES     
   19826 H6         959.9808 -1045.0080   331.5713 H6            1 RES     
   19827 H6         960.4338 -1044.3393   329.9580 H6            1 RES     
   19828 H6         967.7265 -1044.7787   329.1689 H6            1 RES     
   19829 H6         967.3640 -1043.0675   329.6038 H6            1 RES     
   19830 H6         968.2326 -1044.1416   326.8649 H6            1 RES     
   19831 H6         968.0069 -1042.3825   327.3295 H6            1 RES     
   19832 H6         969.8475 -1042.5969   328.9668 H6            1 RES     
   19833 H6         970.0453 -1044.3427   328.5289 H6            1 RES     
   19834 H6         970.5334 -1043.7095   326.1591 H6            1 RES     
   19835 H6         970.3240 -1041.9664   326.5941 H6            1 RES     
   19836 H6         972.2561 -1042.1428   328.1946 H6            1 RES     
   19837 H6         972.4131 -1043.8945   327.8010 H6            1 RES     
   19838 H6         972.9585 -1043.3660   325.4364 H6            1 RES     
   19839 H6         974.1075 -1042.6198   326.6065 H6            1 RES     
   19840 H6         972.9158 -1040.4176   326.3910 H6            1 RES     
   19841 H6         971.8017 -1041.1413   325.1646 H6            1 RES     
   19842 H6         973.6214 -1039.8977   324.0684 H6            1 RES     
   19843 H6         974.8581 -1040.9199   324.8953 H6            1 RES     
   19844 H6         973.7314 -1041.6578   323.6833 H6            1 RES     
   19845 C0         972.5292 -1049.8965   318.7918 C0            1 RES     
   19846 C1         972.3427 -1048.6418   319.6547 C1            1 RES     
   19847 C1         973.4749 -1047.9147   319.7809 C1            1 RES     
   19848 S2         973.2484 -1046.5380   320.7022 S2            1 RES     
   19849 C1         971.5960 -1046.8816   320.9511 C1            1 RES     
   19850 C1         971.2460 -1048.0727   320.3048 C1            1 RES     
   19851 C1         974.5062 -1048.5740   319.0650 C1            1 RES     
   19852 C1         974.0272 -1049.7261   318.5109 C1            1 RES     
   19853 C1         975.0120 -1050.4417   317.8222 C1            1 RES     
   19854 C1         976.2679 -1049.7853   317.8864 C1            1 RES     
   19855 S2         976.1165 -1048.3235   318.7553 S2            1 RES     
   19856 H3         970.2526 -1048.4992   320.3085 H3            1 RES     
   19857 H3         974.8178 -1051.3799   317.3245 H3            1 RES     
   19858 N4         979.8438 -1049.7279   316.6921 N4            1 RES     
   19859 C1         978.6244 -1049.3268   317.1520 C1            1 RES     
   19860 C1         977.5761 -1050.2541   317.3554 C1            1 RES     
   19861 C1         977.8539 -1051.6055   317.0815 C1            1 RES     
   19862 N4         976.9792 -1052.6261   317.2675 N4            1 RES     
   19863 S2         977.8696 -1053.9488   316.8320 S2            1 RES     
   19864 N4         979.3355 -1053.3150   316.4113 N4            1 RES     
   19865 C1         979.1445 -1051.9900   316.6194 C1            1 RES     
   19866 C1         980.1281 -1051.0301   316.4230 C1            1 RES     
   19867 H5         978.4761 -1048.2733   317.3456 H5            1 RES     
   19868 C0         971.6656 -1049.5861   317.5098 C0            1 RES     
   19869 C0         971.6339 -1050.3474   316.1377 C0            1 RES     
   19870 C0         971.0596 -1049.3922   315.0281 C0            1 RES     
   19871 C0         969.5312 -1049.1014   314.9552 C0            1 RES     
   19872 C0         968.8586 -1048.3120   316.0976 C0            1 RES     
   19873 C0         969.4760 -1046.9352   316.4094 C0            1 RES     
   19874 C0         969.3898 -1045.9527   315.2340 C0            1 RES     
   19875 C0         969.9643 -1044.5917   315.6207 C0            1 RES     
   19876 C0         970.8275 -1051.6762   316.0796 C0            1 RES     
   19877 C0         971.5845 -1052.9260   316.5194 C0            1 RES     
   19878 C0         970.6484 -1054.1485   316.5342 C0            1 RES     
   19879 C0         971.3624 -1055.4162   317.0290 C0            1 RES     
   19880 C0         970.3524 -1056.5540   317.2582 C0            1 RES     
   19881 C0         970.9589 -1057.7942   317.9406 C0            1 RES     
   19882 C0         971.4030 -1057.5139   319.3902 C0            1 RES     
   19883 C0         971.8909 -1058.7811   320.0851 C0            1 RES     
   19884 H6         970.6309 -1049.4685   317.8612 H6            1 RES     
   19885 H6         972.0406 -1048.5810   317.2158 H6            1 RES     
   19886 H6         972.6849 -1050.5262   315.8188 H6            1 RES     
   19887 H6         971.2996 -1049.8762   314.0546 H6            1 RES     
   19888 H6         971.6199 -1048.4327   315.0212 H6            1 RES     
   19889 H6         968.9804 -1050.0577   314.8327 H6            1 RES     
   19890 H6         969.3620 -1048.5295   314.0181 H6            1 RES     
   19891 H6         968.8345 -1048.9235   317.0147 H6            1 RES     
   19892 H6         967.7907 -1048.1611   315.8271 H6            1 RES     
   19893 H6         970.5313 -1047.0453   316.7201 H6            1 RES     
   19894 H6         968.9171 -1046.5040   317.2689 H6            1 RES     
   19895 H6         969.9634 -1046.3389   314.3660 H6            1 RES     
   19896 H6         968.3267 -1045.8222   314.9366 H6            1 RES     
   19897 H6         969.4018 -1044.1628   316.4775 H6            1 RES     
   19898 H6         969.8852 -1043.8950   314.7598 H6            1 RES     
   19899 H6         971.0348 -1044.6908   315.9013 H6            1 RES     
   19900 H6         970.5591 -1051.8969   315.0217 H6            1 RES     
   19901 H6         969.8793 -1051.5423   316.6455 H6            1 RES     
   19902 H6         972.4483 -1053.1041   315.8424 H6            1 RES     
   19903 H6         971.9635 -1052.7639   317.5192 H6            1 RES     
   19904 H6         969.8136 -1053.9171   317.2333 H6            1 RES     
   19905 H6         970.2216 -1054.3324   315.5242 H6            1 RES     
   19906 H6         972.1497 -1055.7300   316.3103 H6            1 RES     
   19907 H6         971.8613 -1055.1814   317.9773 H6            1 RES     
   19908 H6         969.5147 -1056.1954   317.8969 H6            1 RES     
   19909 H6         969.9281 -1056.8490   316.2733 H6            1 RES     
   19910 H6         971.8100 -1058.1828   317.3415 H6            1 RES     
   19911 H6         970.1676 -1058.5748   317.9717 H6            1 RES     
   19912 H6         970.5448 -1057.1063   319.9693 H6            1 RES     
   19913 H6         972.2309 -1056.7809   319.4117 H6            1 RES     
   19914 H6         972.1933 -1058.5387   321.1244 H6            1 RES     
   19915 H6         971.0806 -1059.5405   320.1191 H6            1 RES     
   19916 H6         972.7680 -1059.2021   319.5467 H6            1 RES     
   19917 C0         972.0399 -1051.1187   319.6695 C0            1 RES     
   19918 C0         972.8700 -1052.4143   319.9548 C0            1 RES     
   19919 C0         971.9120 -1053.6279   320.2180 C0            1 RES     
   19920 C0         971.1352 -1053.7656   321.5507 C0            1 RES     
   19921 C0         969.9856 -1052.7746   321.8247 C0            1 RES     
   19922 C0         968.8842 -1052.7095   320.7456 C0            1 RES     
   19923 C0         968.1797 -1054.0486   320.4921 C0            1 RES     
   19924 C0         967.0725 -1053.8851   319.4526 C0            1 RES     
   19925 C0         973.8992 -1052.3655   321.1220 C0            1 RES     
   19926 C0         975.1018 -1051.4678   320.8848 C0            1 RES     
   19927 C0         976.1608 -1051.6041   321.9795 C0            1 RES     
   19928 C0         977.3602 -1050.7099   321.6450 C0            1 RES     
   19929 C0         978.4554 -1050.8163   322.7131 C0            1 RES     
   19930 C0         979.7015 -1049.9808   322.3738 C0            1 RES     
   19931 C0         979.4180 -1048.4716   322.3055 C0            1 RES     
   19932 C0         980.6964 -1047.6853   322.0353 C0            1 RES     
   19933 H6         971.6763 -1050.7644   320.6497 H6            1 RES     
   19934 H6         971.1230 -1051.4282   319.1438 H6            1 RES     
   19935 H6         973.4231 -1052.6741   319.0310 H6            1 RES     
   19936 H6         972.5560 -1054.5328   320.1697 H6            1 RES     
   19937 H6         971.1747 -1053.7146   319.4021 H6            1 RES     
   19938 H6         971.8440 -1053.7463   322.4033 H6            1 RES     
   19939 H6         970.6882 -1054.7830   321.5513 H6            1 RES     
   19940 H6         970.3905 -1051.7616   321.9882 H6            1 RES     
   19941 H6         969.5119 -1053.0715   322.7855 H6            1 RES     
   19942 H6         969.2953 -1052.3435   319.7885 H6            1 RES     
   19943 H6         968.1283 -1051.9678   321.0860 H6            1 RES     
   19944 H6         968.9044 -1054.7974   320.1091 H6            1 RES     
   19945 H6         967.7359 -1054.4241   321.4392 H6            1 RES     
   19946 H6         966.3129 -1053.1562   319.8083 H6            1 RES     
   19947 H6         966.5744 -1054.8613   319.2776 H6            1 RES     
   19948 H6         967.4961 -1053.5252   318.4900 H6            1 RES     
   19949 H6         974.3068 -1053.3938   321.2462 H6            1 RES     
   19950 H6         973.3988 -1052.0730   322.0705 H6            1 RES     
   19951 H6         975.5757 -1051.7722   319.9304 H6            1 RES     
   19952 H6         974.7632 -1050.4190   320.8631 H6            1 RES     
   19953 H6         975.7270 -1051.3086   322.9593 H6            1 RES     
   19954 H6         976.5007 -1052.6626   322.0392 H6            1 RES     
   19955 H6         977.7827 -1051.0154   320.6615 H6            1 RES     
   19956 H6         977.0008 -1049.6626   321.5727 H6            1 RES     
   19957 H6         978.0512 -1050.4995   323.6992 H6            1 RES     
   19958 H6         978.7718 -1051.8798   322.7917 H6            1 RES     
   19959 H6         980.1266 -1050.3269   321.4057 H6            1 RES     
   19960 H6         980.4563 -1050.1644   323.1695 H6            1 RES     
   19961 H6         978.9832 -1048.1307   323.2700 H6            1 RES     
   19962 H6         978.7026 -1048.2468   321.4876 H6            1 RES     
   19963 H6         980.4621 -1046.6007   321.9914 H6            1 RES     
   19964 H6         981.4345 -1047.8578   322.8471 H6            1 RES     
   19965 H6         981.1401 -1047.9934   321.0645 H6            1 RES     
   19966 C0         984.1247 -1053.1547   313.4684 C0            1 RES     
   19967 C1         983.2973 -1052.4305   314.5381 C1            1 RES     
   19968 C1         984.0600 -1051.8134   315.4676 C1            1 RES     
   19969 S2         983.1437 -1051.0077   316.6107 S2            1 RES     
   19970 C1         981.6761 -1051.4643   315.8705 C1            1 RES     
   19971 C1         981.9279 -1052.2421   314.7344 C1            1 RES     
   19972 C1         985.4216 -1052.0540   315.1533 C1            1 RES     
   19973 C1         985.5122 -1052.8416   314.0418 C1            1 RES     
   19974 C1         986.8351 -1053.1457   313.7044 C1            1 RES     
   19975 C1         987.7490 -1052.5608   314.6182 C1            1 RES     
   19976 S2         986.9004 -1051.6539   315.7895 S2            1 RES     
   19977 H3         981.1598 -1052.6467   314.0901 H3            1 RES     
   19978 H3         987.0997 -1053.7617   312.8581 H3            1 RES     
   19979 N4         991.3665 -1051.8880   315.4414 N4            1 RES     
   19980 C1         990.0106 -1051.7662   315.3641 C1            1 RES     
   19981 C1         989.2288 -1052.7088   314.6568 C1            1 RES     
   19982 C1         989.9090 -1053.7836   314.0562 C1            1 RES     
   19983 N4         989.3084 -1054.7977   313.3836 N4            1 RES     
   19984 S2         990.5856 -1055.7598   312.9651 S2            1 RES     
   19985 N4         991.8942 -1054.9710   313.5918 N4            1 RES     
   19986 C1         991.3241 -1053.8880   314.1728 C1            1 RES     
   19987 C1         992.0386 -1052.9208   314.8667 C1            1 RES     
   19988 H5         989.5484 -1050.9178   315.8499 H5            1 RES     
   19989 C0         983.8408 -1052.3180   312.1627 C0            1 RES     
   19990 C0         984.5765 -1052.3770   310.7777 C0            1 RES     
   19991 C0         984.3188 -1051.0368   309.9963 C0            1 RES     
   19992 C0         982.9454 -1050.7793   309.3083 C0            1 RES     
   19993 C0         981.6852 -1050.6075   310.1817 C0            1 RES     
   19994 C0         981.7649 -1049.5068   311.2570 C0            1 RES     
   19995 C0         981.9552 -1048.1012   310.6717 C0            1 RES     
   19996 C0         981.9694 -1047.0494   311.7788 C0            1 RES     
   19997 C0         984.2126 -1053.5540   309.8280 C0            1 RES     
   19998 C0         984.9843 -1054.8499   310.0593 C0            1 RES     
   19999 C0         984.4506 -1055.9680   309.1449 C0            1 RES     
   20000 C0         985.1657 -1057.3058   309.3915 C0            1 RES     
   20001 C0         984.4564 -1058.4470   308.6419 C0            1 RES     
   20002 C0         984.9914 -1059.8475   308.9940 C0            1 RES     
   20003 C0         984.6974 -1060.2429   310.4549 C0            1 RES     
   20004 C0         985.1298 -1061.6759   310.7488 C0            1 RES     
   20005 H6         982.7597 -1052.3957   311.9807 H6            1 RES     
   20006 H6         984.0543 -1051.2803   312.5017 H6            1 RES     
   20007 H6         985.6726 -1052.3683   310.9694 H6            1 RES     
   20008 H6         985.0569 -1051.0226   309.1628 H6            1 RES     
   20009 H6         984.5832 -1050.1653   310.6330 H6            1 RES     
   20010 H6         982.7435 -1051.5892   308.5760 H6            1 RES     
   20011 H6         983.0595 -1049.8496   308.7115 H6            1 RES     
   20012 H6         981.4201 -1051.5679   310.6537 H6            1 RES     
   20013 H6         980.8312 -1050.3750   309.5087 H6            1 RES     
   20014 H6         982.5811 -1049.7213   311.9711 H6            1 RES     
   20015 H6         980.8093 -1049.5238   311.8256 H6            1 RES     
   20016 H6         982.9165 -1048.0399   310.1208 H6            1 RES     
   20017 H6         981.1216 -1047.8746   309.9721 H6            1 RES     
   20018 H6         981.0122 -1047.0673   312.3427 H6            1 RES     
   20019 H6         982.1002 -1046.0408   311.3334 H6            1 RES     
   20020 H6         982.8090 -1047.2402   312.4810 H6            1 RES     
   20021 H6         984.4796 -1053.2786   308.7828 H6            1 RES     
   20022 H6         983.1120 -1053.7122   309.8627 H6            1 RES     
   20023 H6         986.0687 -1054.6829   309.8795 H6            1 RES     
   20024 H6         984.8523 -1055.1488   311.0902 H6            1 RES     
   20025 H6         983.3696 -1056.0968   309.3767 H6            1 RES     
   20026 H6         984.5504 -1055.6850   308.0743 H6            1 RES     
   20027 H6         986.2333 -1057.2426   309.0895 H6            1 RES     
   20028 H6         985.1432 -1057.5138   310.4683 H6            1 RES     
   20029 H6         983.3682 -1058.4352   308.8739 H6            1 RES     
   20030 H6         984.5740 -1058.2743   307.5494 H6            1 RES     
   20031 H6         986.0817 -1059.9037   308.7880 H6            1 RES     
   20032 H6         984.4724 -1060.5756   308.3330 H6            1 RES     
   20033 H6         983.6048 -1060.1610   310.6491 H6            1 RES     
   20034 H6         985.2373 -1059.5802   311.1566 H6            1 RES     
   20035 H6         984.8951 -1061.9228   311.8044 H6            1 RES     
   20036 H6         984.5879 -1062.3869   310.0890 H6            1 RES     
   20037 H6         986.2246 -1061.7878   310.5905 H6            1 RES     
   20038 C0         983.6152 -1054.6526   313.4480 C0            1 RES     
   20039 C0         984.5272 -1055.9178   313.5760 C0            1 RES     
   20040 C0         983.8669 -1057.1408   312.8491 C0            1 RES     
   20041 C0         982.6552 -1057.8840   313.4639 C0            1 RES     
   20042 C0         981.2990 -1057.1505   313.5020 C0            1 RES     
   20043 C0         980.7794 -1056.6296   312.1453 C0            1 RES     
   20044 C0         980.5898 -1057.7251   311.0880 C0            1 RES     
   20045 C0         980.0250 -1057.1345   309.7976 C0            1 RES     
   20046 C0         984.9192 -1056.3787   315.0106 C0            1 RES     
   20047 C0         985.8572 -1055.4434   315.7549 C0            1 RES     
   20048 C0         986.3500 -1056.0358   317.0759 C0            1 RES     
   20049 C0         987.3274 -1055.0600   317.7410 C0            1 RES     
   20050 C0         987.8560 -1055.6128   319.0700 C0            1 RES     
   20051 C0         988.8901 -1054.6859   319.7315 C0            1 RES     
   20052 C0         988.3127 -1053.3159   320.1218 C0            1 RES     
   20053 C0         989.3574 -1052.4634   320.8341 C0            1 RES     
   20054 H6         982.7972 -1054.7882   314.1767 H6            1 RES     
   20055 H6         983.1109 -1054.7117   312.4708 H6            1 RES     
   20056 H6         985.4643 -1055.7191   313.0201 H6            1 RES     
   20057 H6         984.6651 -1057.9111   312.7756 H6            1 RES     
   20058 H6         983.5898 -1056.8660   311.8174 H6            1 RES     
   20059 H6         982.9079 -1058.2361   314.4846 H6            1 RES     
   20060 H6         982.5062 -1058.8016   312.8550 H6            1 RES     
   20061 H6         981.3425 -1056.3120   314.2174 H6            1 RES     
   20062 H6         980.5478 -1057.8605   313.9111 H6            1 RES     
   20063 H6         981.4579 -1055.8611   311.7355 H6            1 RES     
   20064 H6         979.7982 -1056.1395   312.3308 H6            1 RES     
   20065 H6         981.5635 -1058.2029   310.8514 H6            1 RES     
   20066 H6         979.8892 -1058.4983   311.4705 H6            1 RES     
   20067 H6         979.0371 -1056.6628   309.9883 H6            1 RES     
   20068 H6         979.8961 -1057.9372   309.0420 H6            1 RES     
   20069 H6         980.7182 -1056.3686   309.3870 H6            1 RES     
   20070 H6         985.4670 -1057.3423   314.9098 H6            1 RES     
   20071 H6         984.0098 -1056.5581   315.6241 H6            1 RES     
   20072 H6         986.7488 -1055.2725   315.1193 H6            1 RES     
   20073 H6         985.3213 -1054.5063   315.9775 H6            1 RES     
   20074 H6         985.4848 -1056.2253   317.7474 H6            1 RES     
   20075 H6         986.8732 -1056.9989   316.8799 H6            1 RES     
   20076 H6         988.1866 -1054.8779   317.0572 H6            1 RES     
   20077 H6         986.7951 -1054.1017   317.9131 H6            1 RES     
   20078 H6         987.0089 -1055.7854   319.7692 H6            1 RES     
   20079 H6         988.3518 -1056.5894   318.8756 H6            1 RES     
   20080 H6         989.7548 -1054.5471   319.0454 H6            1 RES     
   20081 H6         989.2553 -1055.1923   320.6518 H6            1 RES     
   20082 H6         987.4424 -1053.4580   320.7983 H6            1 RES     
   20083 H6         987.9815 -1052.7620   319.2191 H6            1 RES     
   20084 H6         988.9136 -1051.4819   321.1039 H6            1 RES     
   20085 H6         989.6985 -1052.9675   321.7632 H6            1 RES     
   20086 H6         990.2305 -1052.2890   320.1696 H6            1 RES     
   20087 C0         997.2896 -1053.3880   313.6729 C0            1 RES     
   20088 C1         995.9404 -1053.2449   314.3889 C1            1 RES     
   20089 C1         996.0655 -1053.0975   315.7265 C1            1 RES     
   20090 S2         994.5882 -1052.9169   316.4882 S2            1 RES     
   20091 C1         993.7288 -1053.0228   315.0183 C1            1 RES     
   20092 C1         994.6159 -1053.1968   313.9499 C1            1 RES     
   20093 C1         997.4457 -1053.1388   316.0489 C1            1 RES     
   20094 C1         998.1840 -1053.3364   314.9176 C1            1 RES     
   20095 C1         999.5552 -1053.4248   315.1787 C1            1 RES     
   20096 C1         999.8267 -1053.2956   316.5651 C1            1 RES     
   20097 S2         998.3725 -1053.0359   317.4209 S2            1 RES     
   20098 H3         994.3146 -1053.2838   312.9152 H3            1 RES     
   20099 H3        1000.2921 -1053.5852   314.4062 H3            1 RES     
   20100 N4        1002.4777 -1052.9854   319.2283 N4            1 RES     
   20101 C1        1001.2970 -1052.8727   318.5556 C1            1 RES     
   20102 C1        1001.1383 -1053.4112   317.2575 C1            1 RES     
   20103 C1        1002.2430 -1054.0824   316.7028 C1            1 RES     
   20104 N4        1002.2449 -1054.6962   315.4926 N4            1 RES     
   20105 S2        1003.7670 -1055.3356   315.4143 S2            1 RES     
   20106 N4        1004.4568 -1054.8858   316.8458 N4            1 RES     
   20107 C1        1003.4546 -1054.1960   317.4419 C1            1 RES     
   20108 C1        1003.5543 -1053.6311   318.7062 C1            1 RES     
   20109 H5        1000.4853 -1052.3465   319.0390 H5            1 RES     
   20110 C0         997.3970 -1052.0579   312.8331 C0            1 RES     
   20111 C0         998.6418 -1051.4675   312.0815 C0            1 RES     
   20112 C0         998.4299 -1049.9250   311.8599 C0            1 RES     
   20113 C0         997.4609 -1049.4157   310.7519 C0            1 RES     
   20114 C0         995.9483 -1049.6862   310.8907 C0            1 RES     
   20115 C0         995.2998 -1049.1892   312.1971 C0            1 RES     
   20116 C0         995.3804 -1047.6670   312.3721 C0            1 RES     
   20117 C0         994.6728 -1047.2295   313.6527 C0            1 RES     
   20118 C0         999.0068 -1052.0958   310.7062 C0            1 RES     
   20119 C0         999.8908 -1053.3382   310.7632 C0            1 RES     
   20120 C0        1000.0786 -1053.9338   309.3557 C0            1 RES     
   20121 C0        1000.9166 -1055.2218   309.3812 C0            1 RES     
   20122 C0        1000.8865 -1055.9166   308.0087 C0            1 RES     
   20123 C0        1001.5372 -1057.3123   308.0052 C0            1 RES     
   20124 C0        1000.7540 -1058.3322   308.8559 C0            1 RES     
   20125 C0        1001.3477 -1059.7329   308.7443 C0            1 RES     
   20126 H6         996.5482 -1052.0696   312.1350 H6            1 RES     
   20127 H6         997.1930 -1051.2811   313.6027 H6            1 RES     
   20128 H6         999.5160 -1051.5213   312.7680 H6            1 RES     
   20129 H6         999.4252 -1049.5186   311.5703 H6            1 RES     
   20130 H6         998.1835 -1049.4299   312.8236 H6            1 RES     
   20131 H6         997.7879 -1049.8113   309.7673 H6            1 RES     
   20132 H6         997.5930 -1048.3142   310.6975 H6            1 RES     
   20133 H6         995.7446 -1050.7620   310.7620 H6            1 RES     
   20134 H6         995.4326 -1049.1941   310.0373 H6            1 RES     
   20135 H6         995.7607 -1049.6848   313.0713 H6            1 RES     
   20136 H6         994.2275 -1049.4833   312.1722 H6            1 RES     
   20137 H6         996.4396 -1047.3412   312.4309 H6            1 RES     
   20138 H6         994.8953 -1047.1676   311.5055 H6            1 RES     
   20139 H6         993.6015 -1047.5223   313.6230 H6            1 RES     
   20140 H6         994.7364 -1046.1257   313.7557 H6            1 RES     
   20141 H6         995.1536 -1047.6979   314.5381 H6            1 RES     
   20142 H6         999.6184 -1051.3714   310.1222 H6            1 RES     
   20143 H6         998.0682 -1052.2776   310.1375 H6            1 RES     
   20144 H6        1000.8749 -1053.0833   311.2136 H6            1 RES     
   20145 H6         999.4089 -1054.0739   311.3926 H6            1 RES     
   20146 H6         999.0664 -1054.1782   308.9625 H6            1 RES     
   20147 H6        1000.5530 -1053.1951   308.6735 H6            1 RES     
   20148 H6        1001.9625 -1055.0045   309.6875 H6            1 RES     
   20149 H6        1000.4892 -1055.8947   310.1347 H6            1 RES     
   20150 H6         999.8344 -1056.0358   307.6663 H6            1 RES     
   20151 H6        1001.4120 -1055.2659   307.2754 H6            1 RES     
   20152 H6        1002.5905 -1057.2443   308.3518 H6            1 RES     
   20153 H6        1001.5375 -1057.6745   306.9539 H6            1 RES     
   20154 H6         999.6976 -1058.3719   308.5088 H6            1 RES     
   20155 H6        1000.7703 -1058.0463   309.9241 H6            1 RES     
   20156 H6        1000.7532 -1060.4357   309.3631 H6            1 RES     
   20157 H6        1001.3234 -1060.0809   307.6894 H6            1 RES     
   20158 H6        1002.3980 -1059.7361   309.1091 H6            1 RES     
   20159 C0         997.2091 -1054.7259   312.8320 C0            1 RES     
   20160 C0         998.2523 -1055.8910   312.8880 C0            1 RES     
   20161 C0         998.2747 -1056.6679   311.5257 C0            1 RES     
   20162 C0         997.1318 -1057.6361   311.1326 C0            1 RES     
   20163 C0         995.7564 -1057.0304   310.7859 C0            1 RES     
   20164 C0         995.7547 -1055.9643   309.6700 C0            1 RES     
   20165 C0         996.2982 -1056.4673   308.3264 C0            1 RES     
   20166 C0         996.2123 -1055.3701   307.2672 C0            1 RES     
   20167 C0         998.0952 -1056.9417   314.0262 C0            1 RES     
   20168 C0         998.3764 -1056.4230   315.4264 C0            1 RES     
   20169 C0         998.3870 -1057.5373   316.4738 C0            1 RES     
   20170 C0         998.7265 -1056.9456   317.8466 C0            1 RES     
   20171 C0         998.7555 -1058.0275   318.9329 C0            1 RES     
   20172 C0         999.1578 -1057.4766   320.3116 C0            1 RES     
   20173 C0         998.1621 -1056.4447   320.8650 C0            1 RES     
   20174 C0         998.5697 -1055.9829   322.2601 C0            1 RES     
   20175 H6         996.2174 -1055.1950   312.9537 H6            1 RES     
   20176 H6         997.1975 -1054.3482   311.7976 H6            1 RES     
   20177 H6         999.2598 -1055.4411   312.9840 H6            1 RES     
   20178 H6         999.1864 -1057.3032   311.5590 H6            1 RES     
   20179 H6         998.4053 -1055.9627   310.6876 H6            1 RES     
   20180 H6         997.0029 -1058.4060   311.9203 H6            1 RES     
   20181 H6         997.4783 -1058.1824   310.2290 H6            1 RES     
   20182 H6         995.2914 -1056.6053   311.6914 H6            1 RES     
   20183 H6         995.0952 -1057.8655   310.4681 H6            1 RES     
   20184 H6         996.3388 -1055.0783   309.9744 H6            1 RES     
   20185 H6         994.7022 -1055.6336   309.5275 H6            1 RES     
   20186 H6         997.3630 -1056.7641   308.4298 H6            1 RES     
   20187 H6         995.7076 -1057.3456   307.9879 H6            1 RES     
   20188 H6         995.1562 -1055.0583   307.1185 H6            1 RES     
   20189 H6         996.6113 -1055.7470   306.3026 H6            1 RES     
   20190 H6         996.8102 -1054.4857   307.5773 H6            1 RES     
   20191 H6         998.8457 -1057.7429   313.8421 H6            1 RES     
   20192 H6         997.0829 -1057.3999   313.9963 H6            1 RES     
   20193 H6         999.3846 -1055.9629   315.4270 H6            1 RES     
   20194 H6         997.5910 -1055.7003   315.7017 H6            1 RES     
   20195 H6         997.3911 -1058.0297   316.5070 H6            1 RES     
   20196 H6         999.1562 -1058.2954   316.2032 H6            1 RES     
   20197 H6         999.7242 -1056.4545   317.7979 H6            1 RES     
   20198 H6         997.9607 -1056.1812   318.0922 H6            1 RES     
   20199 H6         997.7597 -1058.5169   319.0031 H6            1 RES     
   20200 H6         999.5033 -1058.7990   318.6451 H6            1 RES     
   20201 H6        1000.1715 -1057.0228   320.2472 H6            1 RES     
   20202 H6         999.2066 -1058.3358   321.0158 H6            1 RES     
   20203 H6         997.1482 -1056.8972   320.9180 H6            1 RES     
   20204 H6         998.1243 -1055.5501   320.2095 H6            1 RES     
   20205 H6         997.8341 -1055.2398   322.6342 H6            1 RES     
   20206 H6         998.5931 -1056.8447   322.9604 H6            1 RES     
   20207 H6         999.5731 -1055.5070   322.2303 H6            1 RES     
   20208 C0        1008.7598 -1053.3878   320.1418 C0            1 RES     
   20209 C1        1007.2430 -1053.6148   320.1028 C1            1 RES     
   20210 C1        1006.7494 -1054.0855   321.2696 C1            1 RES     
   20211 S2        1005.0924 -1054.3026   321.2187 S2            1 RES     
   20212 C1        1004.9908 -1053.7520   319.6072 C1            1 RES     
   20213 C1        1006.2609 -1053.4037   319.1333 C1            1 RES     
   20214 C1        1007.8281 -1054.2366   322.1775 C1            1 RES     
   20215 C1        1009.0004 -1053.8843   321.5727 C1            1 RES     
   20216 C1        1010.1085 -1054.0499   322.4099 C1            1 RES     
   20217 C1        1009.7264 -1054.5554   323.6791 C1            1 RES     
   20218 S2        1008.0309 -1054.7441   323.7437 S2            1 RES     
   20219 H3        1006.4575 -1053.0203   318.1418 H3            1 RES     
   20220 H3        1011.1184 -1053.8268   322.1002 H3            1 RES     
   20221 N4        1010.8380 -1055.4226   327.1761 N4            1 RES     
   20222 C1        1010.0653 -1055.0449   326.1180 C1            1 RES     
   20223 C1        1010.6058 -1054.9417   324.8151 C1            1 RES     
   20224 C1        1011.9659 -1055.2641   324.6583 C1            1 RES     
   20225 N4        1012.6273 -1055.2640   323.4734 N4            1 RES     
   20226 S2        1014.1423 -1055.7640   323.9054 S2            1 RES     
   20227 N4        1014.0302 -1055.9945   325.5368 N4            1 RES     
   20228 C1        1012.7377 -1055.6719   325.7831 C1            1 RES     
   20229 C1        1012.1538 -1055.7376   327.0410 C1            1 RES     
   20230 H5        1009.0259 -1054.8128   326.3054 H5            1 RES     
   20231 C0        1008.8940 -1051.8197   320.0478 C0            1 RES     
   20232 C0        1010.1603 -1050.9250   320.2908 C0            1 RES     
   20233 C0        1009.7026 -1049.4543   320.6084 C0            1 RES     
   20234 C0        1009.2054 -1048.5213   319.4646 C0            1 RES     
   20235 C0        1007.8892 -1048.8598   318.7341 C0            1 RES     
   20236 C0        1006.6499 -1049.0222   319.6352 C0            1 RES     
   20237 C0        1006.2842 -1047.7422   320.3983 C0            1 RES     
   20238 C0        1005.0183 -1047.9474   321.2275 C0            1 RES     
   20239 C0        1011.2124 -1050.8550   319.1473 C0            1 RES     
   20240 C0        1012.2558 -1051.9684   319.1429 C0            1 RES     
   20241 C0        1013.1590 -1051.8587   317.9006 C0            1 RES     
   20242 C0        1014.1863 -1052.9994   317.8315 C0            1 RES     
   20243 C0        1014.9079 -1052.9990   316.4726 C0            1 RES     
   20244 C0        1015.8096 -1054.2270   316.2482 C0            1 RES     
   20245 C0        1015.0067 -1055.5389   316.1418 C0            1 RES     
   20246 C0        1015.9056 -1056.7238   315.8030 C0            1 RES     
   20247 H6        1008.4516 -1051.5338   319.0832 H6            1 RES     
   20248 H6        1008.2044 -1051.4798   320.8517 H6            1 RES     
   20249 H6        1010.6453 -1051.2635   321.2334 H6            1 RES     
   20250 H6        1010.5984 -1048.9383   321.0216 H6            1 RES     
   20251 H6        1008.9604 -1049.4543   321.4354 H6            1 RES     
   20252 H6        1010.0031 -1048.4213   318.6988 H6            1 RES     
   20253 H6        1009.0820 -1047.5116   319.9107 H6            1 RES     
   20254 H6        1008.0216 -1049.7655   318.1195 H6            1 RES     
   20255 H6        1007.6841 -1048.0469   318.0038 H6            1 RES     
   20256 H6        1006.7992 -1049.8489   320.3539 H6            1 RES     
   20257 H6        1005.7936 -1049.2976   318.9811 H6            1 RES     
   20258 H6        1007.1072 -1047.4542   321.0847 H6            1 RES     
   20259 H6        1006.1096 -1046.9162   319.6752 H6            1 RES     
   20260 H6        1004.1646 -1048.2195   320.5706 H6            1 RES     
   20261 H6        1004.7679 -1047.0084   321.7645 H6            1 RES     
   20262 H6        1005.1739 -1048.7545   321.9751 H6            1 RES     
   20263 H6        1011.8225 -1049.9311   319.2657 H6            1 RES     
   20264 H6        1010.6770 -1050.7814   318.1750 H6            1 RES     
   20265 H6        1012.8637 -1051.9222   320.0727 H6            1 RES     
   20266 H6        1011.7424 -1052.9200   319.1188 H6            1 RES     
   20267 H6        1012.4996 -1051.9219   317.0060 H6            1 RES     
   20268 H6        1013.6874 -1050.8807   317.8808 H6            1 RES     
   20269 H6        1014.9184 -1052.9203   318.6639 H6            1 RES     
   20270 H6        1013.6530 -1053.9499   317.9555 H6            1 RES     
   20271 H6        1014.1625 -1052.9745   315.6468 H6            1 RES     
   20272 H6        1015.5236 -1052.0752   316.4036 H6            1 RES     
   20273 H6        1016.5665 -1054.2991   317.0583 H6            1 RES     
   20274 H6        1016.3423 -1054.0745   315.2841 H6            1 RES     
   20275 H6        1014.2406 -1055.4415   315.3408 H6            1 RES     
   20276 H6        1014.4994 -1055.7667   317.0978 H6            1 RES     
   20277 H6        1015.2906 -1057.6439   315.7286 H6            1 RES     
   20278 H6        1016.4149 -1056.5576   314.8297 H6            1 RES     
   20279 H6        1016.6691 -1056.8677   316.5984 H6            1 RES     
   20280 C0        1009.3644 -1054.2024   318.9275 C0            1 RES     
   20281 C0        1010.5289 -1055.2428   319.0294 C0            1 RES     
   20282 C0        1011.3116 -1055.3188   317.6724 C0            1 RES     
   20283 C0        1010.7101 -1056.0305   316.4354 C0            1 RES     
   20284 C0        1009.5117 -1055.3650   315.7285 C0            1 RES     
   20285 C0        1009.7305 -1053.9099   315.2631 C0            1 RES     
   20286 C0        1010.8954 -1053.7384   314.2795 C0            1 RES     
   20287 C0        1011.0092 -1052.2831   313.8298 C0            1 RES     
   20288 C0        1010.1582 -1056.6979   319.4410 C0            1 RES     
   20289 C0        1009.6862 -1056.8621   320.8759 C0            1 RES     
   20290 C0        1009.5156 -1058.3290   321.2731 C0            1 RES     
   20291 C0        1009.0887 -1058.4145   322.7430 C0            1 RES     
   20292 C0        1008.9100 -1059.8697   323.1923 C0            1 RES     
   20293 C0        1008.5452 -1059.9927   324.6815 C0            1 RES     
   20294 C0        1007.1951 -1059.3457   325.0293 C0            1 RES     
   20295 C0        1006.8491 -1059.5554   326.4997 C0            1 RES     
   20296 H6        1008.5578 -1054.6983   318.3602 H6            1 RES     
   20297 H6        1009.7037 -1053.3981   318.2560 H6            1 RES     
   20298 H6        1011.2615 -1054.8620   319.7678 H6            1 RES     
   20299 H6        1012.2449 -1055.8796   317.8968 H6            1 RES     
   20300 H6        1011.6139 -1054.3081   317.3502 H6            1 RES     
   20301 H6        1010.4460 -1057.0761   316.6939 H6            1 RES     
   20302 H6        1011.5262 -1056.1010   315.6845 H6            1 RES     
   20303 H6        1008.6199 -1055.4061   316.3765 H6            1 RES     
   20304 H6        1009.2674 -1055.9811   314.8359 H6            1 RES     
   20305 H6        1009.9010 -1053.2442   316.1272 H6            1 RES     
   20306 H6        1008.7930 -1053.5746   314.7672 H6            1 RES     
   20307 H6        1011.8523 -1054.0255   314.7638 H6            1 RES     
   20308 H6        1010.7318 -1054.3820   313.3885 H6            1 RES     
   20309 H6        1010.0756 -1051.9620   313.3200 H6            1 RES     
   20310 H6        1011.8569 -1052.1739   313.1218 H6            1 RES     
   20311 H6        1011.1897 -1051.6212   314.7044 H6            1 RES     
   20312 H6        1011.0824 -1057.3118   319.3526 H6            1 RES     
   20313 H6        1009.3954 -1057.1160   318.7490 H6            1 RES     
   20314 H6        1010.4573 -1056.4291   321.5437 H6            1 RES     
   20315 H6        1008.7113 -1056.3601   320.9885 H6            1 RES     
   20316 H6        1008.7484 -1058.8058   320.6254 H6            1 RES     
   20317 H6        1010.4827 -1058.8651   321.1426 H6            1 RES     
   20318 H6        1009.8643 -1057.9318   323.3790 H6            1 RES     
   20319 H6        1008.1337 -1057.8614   322.8580 H6            1 RES     
   20320 H6        1008.1265 -1060.3605   322.5747 H6            1 RES     
   20321 H6        1009.8689 -1060.4103   323.0326 H6            1 RES     
   20322 H6        1009.3503 -1059.5358   325.2986 H6            1 RES     
   20323 H6        1008.4930 -1061.0762   324.9265 H6            1 RES     
   20324 H6        1006.3943 -1059.7962   324.4037 H6            1 RES     
   20325 H6        1007.2277 -1058.2525   324.8415 H6            1 RES     
   20326 H6        1005.8711 -1059.0789   326.7220 H6            1 RES     
   20327 H6        1006.7771 -1060.6400   326.7282 H6            1 RES     
   20328 H6        1007.6253 -1059.0947   327.1475 H6            1 RES     
   20329 C0        1016.0342 -1056.0511   330.7908 C0            1 RES     
   20330 C1        1014.7796 -1056.2705   329.9356 C1            1 RES     
   20331 C1        1013.9648 -1057.2290   330.4295 C1            1 RES     
   20332 S2        1012.5904 -1057.4374   329.5006 S2            1 RES     
   20333 C1        1013.0549 -1056.2201   328.3993 C1            1 RES     
   20334 C1        1014.2830 -1055.6662   328.7791 C1            1 RES     
   20335 C1        1014.5577 -1057.7496   331.6077 C1            1 RES     
   20336 C1        1015.7549 -1057.1353   331.8388 C1            1 RES     
   20337 C1        1016.4069 -1057.6363   332.9702 C1            1 RES     
   20338 C1        1015.6544 -1058.6696   333.5853 C1            1 RES     
   20339 S2        1014.1905 -1058.9058   332.7392 S2            1 RES     
   20340 H3        1014.7846 -1054.8715   328.2447 H3            1 RES     
   20341 H3        1017.3677 -1057.2742   333.3041 H3            1 RES     
   20342 N4        1015.3470 -1060.9988   336.5344 N4            1 RES     
   20343 C1        1015.0314 -1060.2012   335.4744 C1            1 RES     
   20344 C1        1016.0322 -1059.5077   334.7549 C1            1 RES     
   20345 C1        1017.3637 -1059.6932   335.1687 C1            1 RES     
   20346 N4        1018.4445 -1059.1422   334.5607 N4            1 RES     
   20347 S2        1019.7035 -1059.7487   335.4433 S2            1 RES     
   20348 N4        1018.9678 -1060.6946   336.5796 N4            1 RES     
   20349 C1        1017.6573 -1060.5478   336.2689 C1            1 RES     
   20350 C1        1016.6288 -1061.1886   336.9465 C1            1 RES     
   20351 H5        1013.9886 -1060.1028   335.2057 H5            1 RES     
   20352 C0        1015.8186 -1054.6074   331.3866 C0            1 RES     
   20353 C0        1016.6090 -1053.8906   332.5375 C0            1 RES     
   20354 C0        1015.7248 -1052.7333   333.1309 C0            1 RES     
   20355 C0        1015.5543 -1051.3956   332.3516 C0            1 RES     
   20356 C0        1014.7950 -1051.3971   331.0085 C0            1 RES     
   20357 C0        1013.3683 -1051.9777   331.0503 C0            1 RES     
   20358 C0        1012.4207 -1051.1898   331.9644 C0            1 RES     
   20359 C0        1011.0114 -1051.7766   331.9205 C0            1 RES     
   20360 C0        1017.9971 -1053.2871   332.1789 C0            1 RES     
   20361 C0        1019.1751 -1054.2540   332.2534 C0            1 RES     
   20362 C0        1020.4655 -1053.5738   331.7602 C0            1 RES     
   20363 C0        1021.6636 -1054.5362   331.7657 C0            1 RES     
   20364 C0        1022.8708 -1053.9048   331.0506 C0            1 RES     
   20365 C0        1024.0458 -1054.8777   330.8397 C0            1 RES     
   20366 C0        1023.7013 -1056.0177   329.8604 C0            1 RES     
   20367 C0        1024.9120 -1056.9004   329.5749 C0            1 RES     
   20368 H6        1015.7737 -1053.9264   330.5251 H6            1 RES     
   20369 H6        1014.7941 -1054.6835   331.8130 H6            1 RES     
   20370 H6        1016.7130 -1054.6076   333.3821 H6            1 RES     
   20371 H6        1016.2094 -1052.4396   334.0893 H6            1 RES     
   20372 H6        1014.7253 -1053.1242   333.4189 H6            1 RES     
   20373 H6        1016.5526 -1050.9419   332.1771 H6            1 RES     
   20374 H6        1015.0171 -1050.6998   333.0307 H6            1 RES     
   20375 H6        1015.3869 -1051.9237   330.2417 H6            1 RES     
   20376 H6        1014.7326 -1050.3467   330.6491 H6            1 RES     
   20377 H6        1013.3902 -1053.0363   331.3681 H6            1 RES     
   20378 H6        1012.9634 -1051.9470   330.0150 H6            1 RES     
   20379 H6        1012.7798 -1051.2246   333.0138 H6            1 RES     
   20380 H6        1012.3788 -1050.1303   331.6308 H6            1 RES     
   20381 H6        1010.6091 -1051.7417   330.8855 H6            1 RES     
   20382 H6        1010.3414 -1051.1880   332.5819 H6            1 RES     
   20383 H6        1011.0217 -1052.8308   332.2715 H6            1 RES     
   20384 H6        1018.2602 -1052.5029   332.9242 H6            1 RES     
   20385 H6        1017.9246 -1052.7940   331.1843 H6            1 RES     
   20386 H6        1019.3005 -1054.6194   333.2960 H6            1 RES     
   20387 H6        1018.9630 -1055.1033   331.6183 H6            1 RES     
   20388 H6        1020.2843 -1053.2407   330.7137 H6            1 RES     
   20389 H6        1020.7032 -1052.6807   332.3784 H6            1 RES     
   20390 H6        1021.9310 -1054.8254   332.8049 H6            1 RES     
   20391 H6        1021.3709 -1055.4520   331.2375 H6            1 RES     
   20392 H6        1022.5644 -1053.5266   330.0500 H6            1 RES     
   20393 H6        1023.2185 -1053.0359   331.6518 H6            1 RES     
   20394 H6        1024.3802 -1055.2910   331.8152 H6            1 RES     
   20395 H6        1024.8842 -1054.2936   330.4012 H6            1 RES     
   20396 H6        1023.3488 -1055.5861   328.8973 H6            1 RES     
   20397 H6        1022.9064 -1056.6646   330.2760 H6            1 RES     
   20398 H6        1024.6250 -1057.7012   328.8631 H6            1 RES     
   20399 H6        1025.7308 -1056.3005   329.1230 H6            1 RES     
   20400 H6        1025.2756 -1057.3710   330.5145 H6            1 RES     
   20401 C0        1017.2716 -1056.2145   329.8183 C0            1 RES     
   20402 C0        1018.4930 -1057.1616   330.0633 C0            1 RES     
   20403 C0        1019.7709 -1056.5979   329.3499 C0            1 RES     
   20404 C0        1019.9398 -1056.6868   327.8130 C0            1 RES     
   20405 C0        1019.0347 -1055.8012   326.9325 C0            1 RES     
   20406 C0        1019.0776 -1054.2883   327.2346 C0            1 RES     
   20407 C0        1020.4721 -1053.6640   327.0954 C0            1 RES     
   20408 C0        1020.4166 -1052.1605   327.3588 C0            1 RES     
   20409 C0        1018.3402 -1058.6536   329.6452 C0            1 RES     
   20410 C0        1017.3577 -1059.4597   330.4780 C0            1 RES     
   20411 C0        1017.3886 -1060.9511   330.1414 C0            1 RES     
   20412 C0        1016.4120 -1061.7017   331.0539 C0            1 RES     
   20413 C0        1016.4110 -1063.2065   330.7587 C0            1 RES     
   20414 C0        1015.4892 -1063.9979   331.7021 C0            1 RES     
   20415 C0        1014.0082 -1063.6091   331.5681 C0            1 RES     
   20416 C0        1013.1316 -1064.4689   332.4724 C0            1 RES     
   20417 H6        1016.9256 -1056.4185   328.7901 H6            1 RES     
   20418 H6        1017.6619 -1055.1860   329.7664 H6            1 RES     
   20419 H6        1018.7289 -1057.1393   331.1452 H6            1 RES     
   20420 H6        1020.6243 -1057.1781   329.7634 H6            1 RES     
   20421 H6        1019.9315 -1055.5442   329.6336 H6            1 RES     
   20422 H6        1019.8478 -1057.7420   327.4845 H6            1 RES     
   20423 H6        1020.9883 -1056.3915   327.5935 H6            1 RES     
   20424 H6        1017.9902 -1056.1512   326.9916 H6            1 RES     
   20425 H6        1019.3467 -1055.9524   325.8763 H6            1 RES     
   20426 H6        1018.7014 -1054.0817   328.2518 H6            1 RES     
   20427 H6        1018.3894 -1053.7865   326.5192 H6            1 RES     
   20428 H6        1021.1708 -1054.1172   327.8296 H6            1 RES     
   20429 H6        1020.8605 -1053.8387   326.0689 H6            1 RES     
   20430 H6        1019.7410 -1051.6649   326.6288 H6            1 RES     
   20431 H6        1021.4318 -1051.7236   327.2575 H6            1 RES     
   20432 H6        1020.0457 -1051.9617   328.3876 H6            1 RES     
   20433 H6        1019.3311 -1059.1399   329.7884 H6            1 RES     
   20434 H6        1018.0670 -1058.7309   328.5705 H6            1 RES     
   20435 H6        1017.6449 -1059.3579   331.5434 H6            1 RES     
   20436 H6        1016.3388 -1059.0853   330.2860 H6            1 RES     
   20437 H6        1017.1067 -1061.1008   329.0767 H6            1 RES     
   20438 H6        1018.4163 -1061.3480   330.3024 H6            1 RES     
   20439 H6        1016.7048 -1061.5413   332.1158 H6            1 RES     
   20440 H6        1015.3973 -1061.2824   330.8931 H6            1 RES     
   20441 H6        1016.1053 -1063.3828   329.7043 H6            1 RES     
   20442 H6        1017.4450 -1063.5945   330.8911 H6            1 RES     
   20443 H6        1015.8220 -1063.8512   332.7535 H6            1 RES     
   20444 H6        1015.5972 -1065.0759   331.4514 H6            1 RES     
   20445 H6        1013.6814 -1063.7462   330.5146 H6            1 RES     
   20446 H6        1013.8567 -1062.5487   331.8579 H6            1 RES     
   20447 H6        1012.0695 -1064.1669   332.3551 H6            1 RES     
   20448 H6        1013.2294 -1065.5409   332.1988 H6            1 RES     
   20449 H6        1013.4252 -1064.3334   333.5353 H6            1 RES     
   20450 C0        1018.5014 -1063.0751   341.6530 C0            1 RES     
   20451 C1        1017.8205 -1062.9127   340.2879 C1            1 RES     
   20452 C1        1017.1269 -1064.0092   339.9099 C1            1 RES     
   20453 S2        1016.3700 -1063.8064   338.4329 S2            1 RES     
   20454 C1        1016.9540 -1062.2124   338.2640 C1            1 RES     
   20455 C1        1017.7340 -1061.8622   339.3722 C1            1 RES     
   20456 C1        1017.2684 -1064.9927   340.9216 C1            1 RES     
   20457 C1        1018.0701 -1064.5222   341.9215 C1            1 RES     
   20458 C1        1018.2785 -1065.4655   342.9328 C1            1 RES     
   20459 C1        1017.6056 -1066.6822   342.6513 C1            1 RES     
   20460 S2        1016.7420 -1066.5436   341.1851 S2            1 RES     
   20461 H3        1018.2103 -1060.9006   339.5031 H3            1 RES     
   20462 H3        1018.8900 -1065.2718   343.8012 H3            1 RES     
   20463 N4        1016.6385 -1070.0996   343.9175 N4            1 RES     
   20464 C1        1016.6233 -1068.9163   343.2401 C1            1 RES     
   20465 C1        1017.6382 -1067.9497   343.4294 C1            1 RES     
   20466 C1        1018.6699 -1068.2718   344.3296 C1            1 RES     
   20467 N4        1019.7413 -1067.4810   344.5903 N4            1 RES     
   20468 S2        1020.6108 -1068.3921   345.6608 S2            1 RES     
   20469 N4        1019.7103 -1069.7661   345.8300 N4            1 RES     
   20470 C1        1018.6624 -1069.5246   345.0060 C1            1 RES     
   20471 C1        1017.6285 -1070.4258   344.7906 C1            1 RES     
   20472 H5        1015.8029 -1068.7308   342.5604 H5            1 RES     
   20473 C0        1017.7170 -1062.0622   342.5719 C0            1 RES     
   20474 C0        1017.7485 -1061.9255   344.1350 C0            1 RES     
   20475 C0        1016.4490 -1061.1822   344.6167 C0            1 RES     
   20476 C0        1016.3129 -1059.6409   344.4381 C0            1 RES     
   20477 C0        1016.2202 -1059.0522   343.0150 C0            1 RES     
   20478 C0        1015.0940 -1059.6214   342.1307 C0            1 RES     
   20479 C0        1013.6907 -1059.3539   342.6907 C0            1 RES     
   20480 C0        1012.6177 -1059.8894   341.7452 C0            1 RES     
   20481 C0        1018.9700 -1061.1935   344.7609 C0            1 RES     
   20482 C0        1020.1974 -1062.0625   345.0194 C0            1 RES     
   20483 C0        1021.3724 -1061.2035   345.5218 C0            1 RES     
   20484 C0        1022.6455 -1062.0368   345.7376 C0            1 RES     
   20485 C0        1023.8537 -1061.1229   346.0067 C0            1 RES     
   20486 C0        1025.2010 -1061.8682   346.0374 C0            1 RES     
   20487 C0        1025.5867 -1062.4496   344.6625 C0            1 RES     
   20488 C0        1026.9756 -1063.0799   344.6868 C0            1 RES     
   20489 H6        1017.8816 -1061.0665   342.1368 H6            1 RES     
   20490 H6        1016.6590 -1062.3463   342.3791 H6            1 RES     
   20491 H6        1017.6512 -1062.9443   344.5718 H6            1 RES     
   20492 H6        1016.3957 -1061.3426   345.7172 H6            1 RES     
   20493 H6        1015.5465 -1061.6837   344.2062 H6            1 RES     
   20494 H6        1017.1513 -1059.1347   344.9613 H6            1 RES     
   20495 H6        1015.3900 -1059.3399   344.9778 H6            1 RES     
   20496 H6        1017.1880 -1059.1615   342.4983 H6            1 RES     
   20497 H6        1016.0686 -1057.9546   343.1076 H6            1 RES     
   20498 H6        1015.2298 -1060.7085   341.9825 H6            1 RES     
   20499 H6        1015.1725 -1059.1351   341.1335 H6            1 RES     
   20500 H6        1013.5672 -1059.8513   343.6750 H6            1 RES     
   20501 H6        1013.5440 -1058.2593   342.8169 H6            1 RES     
   20502 H6        1012.6973 -1059.3994   340.7513 H6            1 RES     
   20503 H6        1011.6116 -1059.6789   342.1652 H6            1 RES     
   20504 H6        1012.7282 -1060.9878   341.6193 H6            1 RES     
   20505 H6        1018.6971 -1060.8254   345.7757 H6            1 RES     
   20506 H6        1019.2117 -1060.3058   344.1357 H6            1 RES     
   20507 H6        1019.9511 -1062.8569   345.7573 H6            1 RES     
   20508 H6        1020.4836 -1062.5373   344.0908 H6            1 RES     
   20509 H6        1021.5792 -1060.4374   344.7413 H6            1 RES     
   20510 H6        1021.1054 -1060.6814   346.4664 H6            1 RES     
   20511 H6        1022.5067 -1062.7584   346.5712 H6            1 RES     
   20512 H6        1022.8317 -1062.6211   344.8281 H6            1 RES     
   20513 H6        1023.9209 -1060.3402   345.2186 H6            1 RES     
   20514 H6        1023.6958 -1060.6120   346.9820 H6            1 RES     
   20515 H6        1025.1773 -1062.6701   346.8058 H6            1 RES     
   20516 H6        1025.9809 -1061.1299   346.3260 H6            1 RES     
   20517 H6        1025.5852 -1061.6373   343.9020 H6            1 RES     
   20518 H6        1024.8697 -1063.2325   344.3528 H6            1 RES     
   20519 H6        1027.2174 -1063.4786   343.6804 H6            1 RES     
   20520 H6        1027.7401 -1062.3220   344.9615 H6            1 RES     
   20521 H6        1027.0061 -1063.9161   345.4191 H6            1 RES     
   20522 C0        1020.0342 -1062.7528   341.4286 C0            1 RES     
   20523 C0        1021.2223 -1063.6802   341.8494 C0            1 RES     
   20524 C0        1022.5077 -1062.8258   342.1282 C0            1 RES     
   20525 C0        1023.3288 -1062.2063   340.9704 C0            1 RES     
   20526 C0        1022.7014 -1061.0391   340.1812 C0            1 RES     
   20527 C0        1022.2511 -1059.8258   341.0220 C0            1 RES     
   20528 C0        1023.3801 -1059.1744   341.8312 C0            1 RES     
   20529 C0        1022.8624 -1057.9542   342.5902 C0            1 RES     
   20530 C0        1021.6210 -1064.8249   340.8722 C0            1 RES     
   20531 C0        1020.6006 -1065.9426   340.7373 C0            1 RES     
   20532 C0        1021.1251 -1067.1195   339.9135 C0            1 RES     
   20533 C0        1020.0628 -1068.2237   339.8654 C0            1 RES     
   20534 C0        1020.5449 -1069.4319   339.0535 C0            1 RES     
   20535 C0        1019.5272 -1070.5853   339.0405 C0            1 RES     
   20536 C0        1018.1978 -1070.2118   338.3654 C0            1 RES     
   20537 C0        1017.2524 -1071.4074   338.3174 C0            1 RES     
   20538 H6        1020.2169 -1062.4777   340.3753 H6            1 RES     
   20539 H6        1020.1527 -1061.8033   341.9739 H6            1 RES     
   20540 H6        1020.9638 -1064.1441   342.8213 H6            1 RES     
   20541 H6        1023.2156 -1063.5106   342.6437 H6            1 RES     
   20542 H6        1022.2771 -1062.0109   342.8349 H6            1 RES     
   20543 H6        1023.6387 -1063.0007   340.2614 H6            1 RES     
   20544 H6        1024.2679 -1061.8197   341.4217 H6            1 RES     
   20545 H6        1021.8470 -1061.4017   339.5851 H6            1 RES     
   20546 H6        1023.4584 -1060.6892   339.4461 H6            1 RES     
   20547 H6        1021.4415 -1060.1101   341.7167 H6            1 RES     
   20548 H6        1021.8343 -1059.0706   340.3197 H6            1 RES     
   20549 H6        1023.7865 -1059.8945   342.5720 H6            1 RES     
   20550 H6        1024.1967 -1058.8571   341.1475 H6            1 RES     
   20551 H6        1022.4644 -1057.1976   341.8803 H6            1 RES     
   20552 H6        1023.6885 -1057.4957   343.1725 H6            1 RES     
   20553 H6        1022.0543 -1058.2506   343.2935 H6            1 RES     
   20554 H6        1022.5414 -1065.3006   341.2788 H6            1 RES     
   20555 H6        1021.8569 -1064.4141   339.8667 H6            1 RES     
   20556 H6        1020.3750 -1066.3271   341.7518 H6            1 RES     
   20557 H6        1019.7030 -1065.5453   340.2358 H6            1 RES     
   20558 H6        1021.3664 -1066.7780   338.8837 H6            1 RES     
   20559 H6        1022.0489 -1067.5227   340.3865 H6            1 RES     
   20560 H6        1019.8297 -1068.5541   340.9025 H6            1 RES     
   20561 H6        1019.1450 -1067.8003   339.4077 H6            1 RES     
   20562 H6        1020.7674 -1069.1193   338.0100 H6            1 RES     
   20563 H6        1021.4843 -1069.8141   339.5104 H6            1 RES     
   20564 H6        1019.3367 -1070.9223   340.0835 H6            1 RES     
   20565 H6        1019.9842 -1071.4306   338.4808 H6            1 RES     
   20566 H6        1018.3921 -1069.8651   337.3274 H6            1 RES     
   20567 H6        1017.6903 -1069.4008   338.9277 H6            1 RES     
   20568 H6        1016.3025 -1071.1092   337.8255 H6            1 RES     
   20569 H6        1017.7088 -1072.2372   337.7371 H6            1 RES     
   20570 H6        1017.0254 -1071.7604   339.3460 H6            1 RES     
   20571 C0        1017.7148 -1074.1934   348.6655 C0            1 RES     
   20572 C1        1017.6609 -1073.4468   347.3264 C1            1 RES     
   20573 C1        1017.4760 -1074.2695   346.2702 C1            1 RES     
   20574 S2        1017.3936 -1073.4380   344.8220 S2            1 RES     
   20575 C1        1017.5967 -1071.9271   345.5876 C1            1 RES     
   20576 C1        1017.7244 -1072.0982   346.9709 C1            1 RES     
   20577 C1        1017.4039 -1075.6006   346.7535 C1            1 RES     
   20578 C1        1017.5680 -1075.6149   348.1088 C1            1 RES     
   20579 C1        1017.5449 -1076.9086   348.6398 C1            1 RES     
   20580 C1        1017.3657 -1077.8815   347.6231 C1            1 RES     
   20581 S2        1017.2007 -1077.1146   346.1068 S2            1 RES     
   20582 H3        1017.8563 -1071.2890   347.6756 H3            1 RES     
   20583 H3        1017.6644 -1077.1146   349.6929 H3            1 RES     
   20584 N4        1016.7955 -1081.5232   346.8294 N4            1 RES     
   20585 C1        1016.7885 -1080.1621   346.7466 C1            1 RES     
   20586 C1        1017.3651 -1079.3627   347.7608 C1            1 RES     
   20587 C1        1017.9608 -1080.0335   348.8442 C1            1 RES     
   20588 N4        1018.5982 -1079.4218   349.8743 N4            1 RES     
   20589 S2        1019.1199 -1080.6984   350.7854 S2            1 RES     
   20590 N4        1018.5879 -1082.0206   349.9510 N4            1 RES     
   20591 C1        1017.9649 -1081.4565   348.8884 C1            1 RES     
   20592 C1        1017.3672 -1082.1863   347.8697 C1            1 RES     
   20593 H5        1016.3163 -1079.7081   345.8862 H5            1 RES     
   20594 C0        1016.3986 -1073.7238   349.3954 C0            1 RES     
   20595 C0        1015.7300 -1074.3080   350.6895 C0            1 RES     
   20596 C0        1014.2135 -1073.8927   350.7222 C0            1 RES     
   20597 C0        1013.8041 -1072.4408   351.1099 C0            1 RES     
   20598 C0        1014.1874 -1071.2745   350.1754 C0            1 RES     
   20599 C0        1013.7142 -1071.4078   348.7151 C0            1 RES     
   20600 C0        1012.1869 -1071.4546   348.5754 C0            1 RES     
   20601 C0        1011.7781 -1071.5290   347.1059 C0            1 RES     
   20602 C0        1016.3574 -1073.9105   352.0562 C0            1 RES     
   20603 C0        1017.5265 -1074.7741   352.5206 C0            1 RES     
   20604 C0        1018.1357 -1074.2086   353.8168 C0            1 RES     
   20605 C0        1019.3544 -1075.0201   354.2837 C0            1 RES     
   20606 C0        1020.0784 -1074.2993   355.4342 C0            1 RES     
   20607 C0        1021.4196 -1074.9470   355.8259 C0            1 RES     
   20608 C0        1022.4785 -1074.8348   354.7108 C0            1 RES     
   20609 C0        1023.8313 -1075.3762   355.1620 C0            1 RES     
   20610 H6        1016.4904 -1072.6354   349.5178 H6            1 RES     
   20611 H6        1015.6236 -1073.9140   348.6204 H6            1 RES     
   20612 H6        1015.7017 -1075.4161   350.5922 H6            1 RES     
   20613 H6        1013.7379 -1074.5346   351.4977 H6            1 RES     
   20614 H6        1013.7185 -1074.1749   349.7683 H6            1 RES     
   20615 H6        1014.1942 -1072.2069   352.1228 H6            1 RES     
   20616 H6        1012.6971 -1072.4375   351.2007 H6            1 RES     
   20617 H6        1015.2782 -1071.1162   350.1983 H6            1 RES     
   20618 H6        1013.7547 -1070.3412   350.5973 H6            1 RES     
   20619 H6        1014.1541 -1072.3070   348.2459 H6            1 RES     
   20620 H6        1014.0906 -1070.5215   348.1585 H6            1 RES     
   20621 H6        1011.7793 -1072.3459   349.0958 H6            1 RES     
   20622 H6        1011.7449 -1070.5390   349.0249 H6            1 RES     
   20623 H6        1012.1532 -1070.6408   346.5538 H6            1 RES     
   20624 H6        1010.6708 -1071.5542   347.0275 H6            1 RES     
   20625 H6        1012.1892 -1072.4489   346.6376 H6            1 RES     
   20626 H6        1015.6007 -1074.0473   352.8614 H6            1 RES     
   20627 H6        1016.6231 -1072.8307   352.0253 H6            1 RES     
   20628 H6        1017.1870 -1075.8217   352.6736 H6            1 RES     
   20629 H6        1018.2837 -1074.7711   351.7484 H6            1 RES     
   20630 H6        1018.4656 -1073.1678   353.6003 H6            1 RES     
   20631 H6        1017.3772 -1074.1763   354.6292 H6            1 RES     
   20632 H6        1019.0507 -1076.0436   354.5920 H6            1 RES     
   20633 H6        1020.0421 -1075.1255   353.4356 H6            1 RES     
   20634 H6        1020.2856 -1073.2435   355.1504 H6            1 RES     
   20635 H6        1019.4049 -1074.2885   356.3193 H6            1 RES     
   20636 H6        1021.2633 -1076.0101   356.1081 H6            1 RES     
   20637 H6        1021.8029 -1074.4014   356.7158 H6            1 RES     
   20638 H6        1022.6069 -1073.7668   354.4266 H6            1 RES     
   20639 H6        1022.1696 -1075.4092   353.8177 H6            1 RES     
   20640 H6        1024.5646 -1075.2710   354.3365 H6            1 RES     
   20641 H6        1024.2025 -1074.8071   356.0411 H6            1 RES     
   20642 H6        1023.7459 -1076.4521   355.4291 H6            1 RES     
   20643 C0        1019.0725 -1073.7696   349.3587 C0            1 RES     
   20644 C0        1020.1523 -1074.7596   349.9088 C0            1 RES     
   20645 C0        1020.9539 -1074.0946   351.0815 C0            1 RES     
   20646 C0        1022.0155 -1072.9999   350.8112 C0            1 RES     
   20647 C0        1021.5250 -1071.6167   350.3370 C0            1 RES     
   20648 C0        1020.4863 -1070.9254   351.2452 C0            1 RES     
   20649 C0        1020.9743 -1070.6846   352.6797 C0            1 RES     
   20650 C0        1019.9097 -1069.9517   353.4937 C0            1 RES     
   20651 C0        1021.1875 -1075.3293   348.8950 C0            1 RES     
   20652 C0        1020.6191 -1076.2882   347.8624 C0            1 RES     
   20653 C0        1021.7067 -1076.9531   347.0177 C0            1 RES     
   20654 C0        1021.0616 -1077.9401   346.0381 C0            1 RES     
   20655 C0        1022.1146 -1078.6392   345.1699 C0            1 RES     
   20656 C0        1021.5052 -1079.6849   344.2207 C0            1 RES     
   20657 C0        1020.5416 -1079.0770   343.1889 C0            1 RES     
   20658 C0        1020.0202 -1080.1428   342.2310 C0            1 RES     
   20659 H6        1019.6140 -1073.0438   348.7273 H6            1 RES     
   20660 H6        1018.7189 -1073.1669   350.2099 H6            1 RES     
   20661 H6        1019.6241 -1075.6187   350.3668 H6            1 RES     
   20662 H6        1021.5162 -1074.9222   351.5660 H6            1 RES     
   20663 H6        1020.2587 -1073.6928   351.8378 H6            1 RES     
   20664 H6        1022.7761 -1073.3805   350.0995 H6            1 RES     
   20665 H6        1022.5525 -1072.8379   351.7705 H6            1 RES     
   20666 H6        1021.1179 -1071.6899   349.3144 H6            1 RES     
   20667 H6        1022.4153 -1070.9550   350.2631 H6            1 RES     
   20668 H6        1019.5516 -1071.5115   351.2871 H6            1 RES     
   20669 H6        1020.2408 -1069.9439   350.7828 H6            1 RES     
   20670 H6        1021.1859 -1071.6525   353.1808 H6            1 RES     
   20671 H6        1021.9026 -1070.0739   352.6625 H6            1 RES     
   20672 H6        1019.6835 -1068.9652   353.0348 H6            1 RES     
   20673 H6        1020.2752 -1069.7874   354.5286 H6            1 RES     
   20674 H6        1018.9755 -1070.5525   353.5384 H6            1 RES     
   20675 H6        1021.9322 -1075.9163   349.4779 H6            1 RES     
   20676 H6        1021.7229 -1074.5029   348.3792 H6            1 RES     
   20677 H6        1020.0827 -1077.0950   348.4004 H6            1 RES     
   20678 H6        1019.9534 -1075.7276   347.1860 H6            1 RES     
   20679 H6        1022.2736 -1076.1774   346.4587 H6            1 RES     
   20680 H6        1022.4089 -1077.5054   347.6822 H6            1 RES     
   20681 H6        1020.4962 -1078.7090   346.6109 H6            1 RES     
   20682 H6        1020.3534 -1077.3765   345.3961 H6            1 RES     
   20683 H6        1022.6778 -1077.8835   344.5800 H6            1 RES     
   20684 H6        1022.8322 -1079.1652   345.8376 H6            1 RES     
   20685 H6        1020.9760 -1080.4614   344.8163 H6            1 RES     
   20686 H6        1022.3430 -1080.1751   343.6780 H6            1 RES     
   20687 H6        1021.0697 -1078.2940   342.6028 H6            1 RES     
   20688 H6        1019.6667 -1078.6197   343.6959 H6            1 RES     
   20689 H6        1019.3283 -1079.6763   341.4984 H6            1 RES     
   20690 H6        1020.8625 -1080.6100   341.6779 H6            1 RES     
   20691 H6        1019.4691 -1080.9280   342.7915 H6            1 RES     
   20692 C0        1016.6930 -1087.2958   349.4990 C0            1 RES     
   20693 C1        1017.0370 -1086.0258   348.7102 C1            1 RES     
   20694 C1        1017.5194 -1086.2859   347.4748 C1            1 RES     
   20695 S2        1017.8647 -1084.8916   346.6193 S2            1 RES     
   20696 C1        1017.3579 -1083.8860   347.9008 C1            1 RES     
   20697 C1        1016.9229 -1084.6611   348.9820 C1            1 RES     
   20698 C1        1017.5676 -1087.6930   347.3060 C1            1 RES     
   20699 C1        1017.1389 -1088.3149   348.4433 C1            1 RES     
   20700 C1        1017.2008 -1089.7090   348.3500 C1            1 RES     
   20701 C1        1017.7072 -1090.1208   347.0905 C1            1 RES     
   20702 S2        1018.0246 -1088.7551   346.1165 S2            1 RES     
   20703 H3        1016.5466 -1084.2553   349.9107 H3            1 RES     
   20704 H3        1016.9071 -1090.3661   349.1547 H3            1 RES     
   20705 N4        1018.4116 -1093.0219   344.7874 N4            1 RES     
   20706 C1        1018.1172 -1091.7711   345.2436 C1            1 RES     
   20707 C1        1018.0003 -1091.5038   346.6274 C1            1 RES     
   20708 C1        1018.2202 -1092.5782   347.5083 C1            1 RES     
   20709 N4        1018.1943 -1092.4840   348.8618 N4            1 RES     
   20710 S2        1018.5667 -1094.0223   349.3380 S2            1 RES     
   20711 N4        1018.7704 -1094.8361   347.9155 N4            1 RES     
   20712 C1        1018.5432 -1093.8669   346.9965 C1            1 RES     
   20713 C1        1018.6270 -1094.0705   345.6257 C1            1 RES     
   20714 H5        1017.9619 -1090.9880   344.5141 H5            1 RES     
   20715 C0        1015.1216 -1087.2372   349.6129 C0            1 RES     
   20716 C0        1014.1270 -1088.3585   350.0779 C0            1 RES     
   20717 C0        1012.6895 -1088.0377   349.5266 C0            1 RES     
   20718 C0        1011.8221 -1086.9278   350.1912 C0            1 RES     
   20719 C0        1012.2765 -1085.4565   350.0939 C0            1 RES     
   20720 C0        1012.5148 -1084.9258   348.6671 C0            1 RES     
   20721 C0        1011.2509 -1084.9393   347.7972 C0            1 RES     
   20722 C0        1011.5353 -1084.3504   346.4172 C0            1 RES     
   20723 C0        1014.0004 -1088.6078   351.6081 C0            1 RES     
   20724 C0        1015.0299 -1089.5611   352.2077 C0            1 RES     
   20725 C0        1014.8773 -1089.6292   353.7385 C0            1 RES     
   20726 C0        1015.9367 -1090.5360   354.3843 C0            1 RES     
   20727 C0        1015.9095 -1090.3971   355.9164 C0            1 RES     
   20728 C0        1017.0689 -1091.1210   356.6259 C0            1 RES     
   20729 C0        1018.4407 -1090.4926   356.3091 C0            1 RES     
   20730 C0        1019.5597 -1091.1485   357.1119 C0            1 RES     
   20731 H6        1014.8912 -1086.3200   350.1730 H6            1 RES     
   20732 H6        1014.8188 -1087.0741   348.5551 H6            1 RES     
   20733 H6        1014.4070 -1089.3032   349.5608 H6            1 RES     
   20734 H6        1012.0973 -1088.9715   349.6563 H6            1 RES     
   20735 H6        1012.7291 -1087.8692   348.4290 H6            1 RES     
   20736 H6        1011.6772 -1087.1684   351.2655 H6            1 RES     
   20737 H6        1010.8157 -1086.9912   349.7257 H6            1 RES     
   20738 H6        1013.1821 -1085.3008   350.7031 H6            1 RES     
   20739 H6        1011.4975 -1084.8250   350.5743 H6            1 RES     
   20740 H6        1013.3120 -1085.5054   348.1664 H6            1 RES     
   20741 H6        1012.8692 -1083.8753   348.7550 H6            1 RES     
   20742 H6        1010.8857 -1085.9786   347.6638 H6            1 RES     
   20743 H6        1010.4563 -1084.3363   348.2878 H6            1 RES     
   20744 H6        1011.8863 -1083.3003   346.5087 H6            1 RES     
   20745 H6        1010.6072 -1084.3627   345.8078 H6            1 RES     
   20746 H6        1012.3119 -1084.9495   345.8951 H6            1 RES     
   20747 H6        1013.0299 -1089.1112   351.8191 H6            1 RES     
   20748 H6        1013.9889 -1087.6250   352.1291 H6            1 RES     
   20749 H6        1014.9173 -1090.5721   351.7590 H6            1 RES     
   20750 H6        1016.0185 -1089.1920   351.9711 H6            1 RES     
   20751 H6        1015.0101 -1088.5957   354.1301 H6            1 RES     
   20752 H6        1013.8621 -1089.9850   354.0195 H6            1 RES     
   20753 H6        1015.7837 -1091.5949   354.0841 H6            1 RES     
   20754 H6        1016.9226 -1090.2308   354.0127 H6            1 RES     
   20755 H6        1015.9601 -1089.3226   356.2013 H6            1 RES     
   20756 H6        1014.9427 -1090.8031   356.2875 H6            1 RES     
   20757 H6        1017.0652 -1092.2001   356.3616 H6            1 RES     
   20758 H6        1016.8963 -1091.0282   357.7205 H6            1 RES     
   20759 H6        1018.4197 -1089.4089   356.5602 H6            1 RES     
   20760 H6        1018.6866 -1090.6080   355.2371 H6            1 RES     
   20761 H6        1020.5258 -1090.6646   356.8613 H6            1 RES     
   20762 H6        1019.3755 -1091.0301   358.2012 H6            1 RES     
   20763 H6        1019.6274 -1092.2305   356.8652 H6            1 RES     
   20764 C0        1017.4842 -1087.2003   350.8661 C0            1 RES     
   20765 C0        1018.4293 -1088.3072   351.4408 C0            1 RES     
   20766 C0        1018.4736 -1088.2262   353.0065 C0            1 RES     
   20767 C0        1019.2557 -1087.1037   353.7324 C0            1 RES     
   20768 C0        1018.6997 -1085.6672   353.6551 C0            1 RES     
   20769 C0        1017.2423 -1085.4852   354.1290 C0            1 RES     
   20770 C0        1017.0025 -1085.9081   355.5842 C0            1 RES     
   20771 C0        1015.5526 -1085.6470   355.9877 C0            1 RES     
   20772 C0        1019.8996 -1088.3331   350.9292 C0            1 RES     
   20773 C0        1020.0692 -1088.7341   349.4735 C0            1 RES     
   20774 C0        1021.5361 -1088.9201   349.0832 C0            1 RES     
   20775 C0        1021.6229 -1089.3719   347.6210 C0            1 RES     
   20776 C0        1023.0777 -1089.5786   347.1824 C0            1 RES     
   20777 C0        1023.1968 -1090.0957   345.7386 C0            1 RES     
   20778 C0        1022.6485 -1089.1091   344.6953 C0            1 RES     
   20779 C0        1022.8530 -1089.6382   343.2797 C0            1 RES     
   20780 H6        1018.0528 -1086.2554   350.9136 H6            1 RES     
   20781 H6        1016.6706 -1087.0560   351.5941 H6            1 RES     
   20782 H6        1017.9776 -1089.2924   351.2123 H6            1 RES     
   20783 H6        1018.9559 -1089.1704   353.3410 H6            1 RES     
   20784 H6        1017.4497 -1088.2259   353.4167 H6            1 RES     
   20785 H6        1020.3128 -1087.1039   353.3971 H6            1 RES     
   20786 H6        1019.2790 -1087.3808   354.8083 H6            1 RES     
   20787 H6        1018.7956 -1085.2794   352.6268 H6            1 RES     
   20788 H6        1019.3516 -1085.0235   354.2848 H6            1 RES     
   20789 H6        1016.5473 -1086.0480   353.4817 H6            1 RES     
   20790 H6        1016.9909 -1084.4066   354.0252 H6            1 RES     
   20791 H6        1017.2046 -1086.9928   355.7071 H6            1 RES     
   20792 H6        1017.6756 -1085.3346   356.2572 H6            1 RES     
   20793 H6        1015.3153 -1084.5651   355.8980 H6            1 RES     
   20794 H6        1015.3935 -1085.9601   357.0405 H6            1 RES     
   20795 H6        1014.8603 -1086.2242   355.3372 H6            1 RES     
   20796 H6        1020.4422 -1089.1031   351.5221 H6            1 RES     
   20797 H6        1020.3898 -1087.3508   351.1033 H6            1 RES     
   20798 H6        1019.5639 -1089.7090   349.3238 H6            1 RES     
   20799 H6        1019.6416 -1087.9436   348.8354 H6            1 RES     
   20800 H6        1022.0842 -1087.9628   349.2193 H6            1 RES     
   20801 H6        1021.9986 -1089.6970   349.7329 H6            1 RES     
   20802 H6        1021.0685 -1090.3294   347.4992 H6            1 RES     
   20803 H6        1021.1428 -1088.5953   346.9904 H6            1 RES     
   20804 H6        1023.6405 -1088.6253   347.2846 H6            1 RES     
   20805 H6        1023.5461 -1090.3332   347.8521 H6            1 RES     
   20806 H6        1022.6662 -1091.0695   345.6494 H6            1 RES     
   20807 H6        1024.2756 -1090.2683   345.5312 H6            1 RES     
   20808 H6        1023.1726 -1088.1339   344.7938 H6            1 RES     
   20809 H6        1021.5603 -1088.9506   344.8439 H6            1 RES     
   20810 H6        1022.4486 -1088.9067   342.5486 H6            1 RES     
   20811 H6        1023.9348 -1089.7853   343.0753 H6            1 RES     
   20812 H6        1022.3202 -1090.6043   343.1489 H6            1 RES     
   20813 C0        1018.5607 -1099.3785   344.6071 C0            1 RES     
   20814 C1        1018.8943 -1097.8816   344.6449 C1            1 RES     
   20815 C1        1019.9020 -1097.5439   343.8101 C1            1 RES     
   20816 S2        1020.2355 -1095.9059   343.8442 S2            1 RES     
   20817 C1        1019.0096 -1095.6003   344.9906 C1            1 RES     
   20818 C1        1018.3548 -1096.7903   345.3286 C1            1 RES     
   20819 C1        1020.3503 -1098.7210   343.1588 C1            1 RES     
   20820 C1        1019.6407 -1099.7995   343.6030 C1            1 RES     
   20821 C1        1020.0658 -1100.9990   343.0226 C1            1 RES     
   20822 C1        1021.1407 -1100.7850   342.1221 C1            1 RES     
   20823 S2        1021.5070 -1099.1196   342.0386 S2            1 RES     
   20824 H3        1017.5353 -1096.8570   346.0305 H3            1 RES     
   20825 H3        1019.6237 -1101.9555   343.2579 H3            1 RES     
   20826 N4        1023.4235 -1102.3142   339.5399 N4            1 RES     
   20827 C1        1022.6753 -1101.4119   340.2366 C1            1 RES     
   20828 C1        1021.9221 -1101.8021   341.3683 C1            1 RES     
   20829 C1        1021.9956 -1103.1533   341.7521 C1            1 RES     
   20830 N4        1021.3760 -1103.6820   342.8375 N4            1 RES     
   20831 S2        1021.8648 -1105.2604   342.7992 S2            1 RES     
   20832 N4        1022.8402 -1105.3381   341.4688 N4            1 RES     
   20833 C1        1022.8014 -1104.0635   341.0110 C1            1 RES     
   20834 C1        1023.5050 -1103.6234   339.8981 C1            1 RES     
   20835 H5        1022.6632 -1100.3874   339.8908 H5            1 RES     
   20836 C0        1017.1256 -1099.4136   343.9552 C0            1 RES     
   20837 C0        1016.3257 -1100.6464   343.4045 C0            1 RES     
   20838 C0        1015.2277 -1100.1438   342.3970 C0            1 RES     
   20839 C0        1013.9239 -1099.4745   342.9245 C0            1 RES     
   20840 C0        1014.0125 -1098.1083   343.6360 C0            1 RES     
   20841 C0        1014.7003 -1096.9845   342.8371 C0            1 RES     
   20842 C0        1013.9686 -1096.6320   341.5353 C0            1 RES     
   20843 C0        1014.6630 -1095.4764   340.8180 C0            1 RES     
   20844 C0        1015.6247 -1101.5634   344.4471 C0            1 RES     
   20845 C0        1016.4962 -1102.6611   345.0504 C0            1 RES     
   20846 C0        1015.7292 -1103.4175   346.1508 C0            1 RES     
   20847 C0        1016.5960 -1104.4939   346.8228 C0            1 RES     
   20848 C0        1015.8888 -1105.0634   348.0649 C0            1 RES     
   20849 C0        1016.7725 -1106.0033   348.9059 C0            1 RES     
   20850 C0        1017.9562 -1105.2685   349.5663 C0            1 RES     
   20851 C0        1018.7489 -1106.1907   350.4871 C0            1 RES     
   20852 H6        1016.4685 -1098.8543   344.6360 H6            1 RES     
   20853 H6        1017.2714 -1098.7967   343.0412 H6            1 RES     
   20854 H6        1017.0144 -1101.2485   342.7708 H6            1 RES     
   20855 H6        1014.8772 -1101.0486   341.8510 H6            1 RES     
   20856 H6        1015.6882 -1099.4963   341.6202 H6            1 RES     
   20857 H6        1013.3985 -1100.1781   343.6040 H6            1 RES     
   20858 H6        1013.2573 -1099.3435   342.0457 H6            1 RES     
   20859 H6        1014.5081 -1098.2243   344.6139 H6            1 RES     
   20860 H6        1012.9779 -1097.7803   343.8775 H6            1 RES     
   20861 H6        1015.7471 -1097.2567   342.6085 H6            1 RES     
   20862 H6        1014.7230 -1096.0795   343.4831 H6            1 RES     
   20863 H6        1013.9533 -1097.5067   340.8526 H6            1 RES     
   20864 H6        1012.9228 -1096.3343   341.7663 H6            1 RES     
   20865 H6        1014.6812 -1094.5735   341.4650 H6            1 RES     
   20866 H6        1014.1139 -1095.2330   339.8842 H6            1 RES     
   20867 H6        1015.7056 -1095.7568   340.5551 H6            1 RES     
   20868 H6        1014.8069 -1102.1299   343.9470 H6            1 RES     
   20869 H6        1015.1599 -1100.9230   345.2290 H6            1 RES     
   20870 H6        1016.8286 -1103.3622   344.2541 H6            1 RES     
   20871 H6        1017.3726 -1102.2024   345.4876 H6            1 RES     
   20872 H6        1015.4333 -1102.6701   346.9208 H6            1 RES     
   20873 H6        1014.8075 -1103.8850   345.7407 H6            1 RES     
   20874 H6        1016.8416 -1105.3058   346.1048 H6            1 RES     
   20875 H6        1017.5426 -1104.0312   347.1280 H6            1 RES     
   20876 H6        1015.5567 -1104.2331   348.7270 H6            1 RES     
   20877 H6        1014.9831 -1105.6153   347.7296 H6            1 RES     
   20878 H6        1017.1380 -1106.8460   348.2809 H6            1 RES     
   20879 H6        1016.1350 -1106.4195   349.7163 H6            1 RES     
   20880 H6        1017.5736 -1104.4162   350.1707 H6            1 RES     
   20881 H6        1018.6535 -1104.8809   348.8004 H6            1 RES     
   20882 H6        1019.5843 -1105.6239   350.9466 H6            1 RES     
   20883 H6        1018.0973 -1106.5819   351.2976 H6            1 RES     
   20884 H6        1019.1699 -1107.0424   349.9095 H6            1 RES     
   20885 C0        1018.6488 -1099.8935   346.1006 C0            1 RES     
   20886 C0        1019.4936 -1101.1188   346.5843 C0            1 RES     
   20887 C0        1018.8484 -1101.7535   347.8652 C0            1 RES     
   20888 C0        1018.9567 -1101.0630   349.2472 C0            1 RES     
   20889 C0        1018.1623 -1099.7599   349.4700 C0            1 RES     
   20890 C0        1016.6446 -1099.8452   349.2035 C0            1 RES     
   20891 C0        1015.9178 -1100.8858   350.0654 C0            1 RES     
   20892 C0        1014.4177 -1100.8685   349.7778 C0            1 RES     
   20893 C0        1021.0015 -1100.8769   346.8876 C0            1 RES     
   20894 C0        1021.8630 -1100.5723   345.6736 C0            1 RES     
   20895 C0        1023.3544 -1100.5282   346.0088 C0            1 RES     
   20896 C0        1024.1585 -1100.2678   344.7299 C0            1 RES     
   20897 C0        1025.6648 -1100.2206   345.0133 C0            1 RES     
   20898 C0        1026.5047 -1100.0260   343.7394 C0            1 RES     
   20899 C0        1026.2342 -1098.6871   343.0347 C0            1 RES     
   20900 C0        1027.1395 -1098.5140   341.8199 C0            1 RES     
   20901 H6        1018.9008 -1099.0595   346.7785 H6            1 RES     
   20902 H6        1017.5946 -1100.1126   346.3319 H6            1 RES     
   20903 H6        1019.4302 -1101.9041   345.8059 H6            1 RES     
   20904 H6        1019.3521 -1102.7356   347.9981 H6            1 RES     
   20905 H6        1017.7796 -1101.9620   347.6894 H6            1 RES     
   20906 H6        1020.0226 -1100.8875   349.4979 H6            1 RES     
   20907 H6        1018.5861 -1101.7961   349.9957 H6            1 RES     
   20908 H6        1018.5905 -1098.9469   348.8595 H6            1 RES     
   20909 H6        1018.3115 -1099.4558   350.5288 H6            1 RES     
   20910 H6        1016.4459 -1100.0702   348.1410 H6            1 RES     
   20911 H6        1016.2127 -1098.8423   349.4155 H6            1 RES     
   20912 H6        1016.3000 -1101.9039   349.8420 H6            1 RES     
   20913 H6        1016.0837 -1100.6634   351.1415 H6            1 RES     
   20914 H6        1013.9913 -1099.8688   350.0091 H6            1 RES     
   20915 H6        1013.9061 -1101.6274   350.4056 H6            1 RES     
   20916 H6        1014.2262 -1101.1048   348.7087 H6            1 RES     
   20917 H6        1021.4068 -1101.8192   347.3197 H6            1 RES     
   20918 H6        1021.1224 -1100.0686   347.6410 H6            1 RES     
   20919 H6        1021.7168 -1101.3854   344.9350 H6            1 RES     
   20920 H6        1021.5724 -1099.5886   345.2699 H6            1 RES     
   20921 H6        1023.5480 -1099.7236   346.7508 H6            1 RES     
   20922 H6        1023.6674 -1101.5041   346.4438 H6            1 RES     
   20923 H6        1023.9535 -1101.0791   343.9959 H6            1 RES     
   20924 H6        1023.8222 -1099.3012   344.3012 H6            1 RES     
   20925 H6        1025.8865 -1099.4039   345.7344 H6            1 RES     
   20926 H6        1025.9690 -1101.1855   345.4755 H6            1 RES     
   20927 H6        1026.3105 -1100.8660   343.0363 H6            1 RES     
   20928 H6        1027.5763 -1100.0615   344.0346 H6            1 RES     
   20929 H6        1026.4184 -1097.8501   343.7426 H6            1 RES     
   20930 H6        1025.1826 -1098.6378   342.6835 H6            1 RES     
   20931 H6        1026.9228 -1097.5405   341.3317 H6            1 RES     
   20932 H6        1028.2064 -1098.5281   342.1286 H6            1 RES     
   20933 H6        1026.9592 -1099.3284   341.0860 H6            1 RES     
   20934 C0        1025.1412 -1107.8970   337.0213 C0            1 RES     
   20935 C1        1025.0607 -1106.5718   337.7900 C1            1 RES     
   20936 C1        1026.2153 -1105.8702   337.7551 C1            1 RES     
   20937 S2        1026.1028 -1104.4175   338.5751 S2            1 RES     
   20938 C1        1024.4725 -1104.6914   338.9963 C1            1 RES     
   20939 C1        1024.0398 -1105.9202   338.4846 C1            1 RES     
   20940 C1        1027.1632 -1106.6150   337.0084 C1            1 RES     
   20941 C1        1026.6111 -1107.7937   336.5963 C1            1 RES     
   20942 C1        1027.5139 -1108.5910   335.8855 C1            1 RES     
   20943 C1        1028.7845 -1107.9684   335.7840 C1            1 RES     
   20944 S2        1028.7441 -1106.4374   336.5383 S2            1 RES     
   20945 H3        1023.0417 -1106.3158   338.6112 H3            1 RES     
   20946 H3        1027.2552 -1109.5603   335.4865 H3            1 RES     
   20947 N4        1032.2386 -1108.1121   334.2787 N4            1 RES     
   20948 C1        1031.0747 -1107.6398   334.8093 C1            1 RES     
   20949 C1        1030.0289 -1108.5166   335.1806 C1            1 RES     
   20950 C1        1030.2514 -1109.8933   334.9966 C1            1 RES     
   20951 N4        1029.3749 -1110.8696   335.3431 N4            1 RES     
   20952 S2        1030.1934 -1112.2485   334.9424 S2            1 RES     
   20953 N4        1031.6288 -1111.6939   334.3430 N4            1 RES     
   20954 C1        1031.4864 -1110.3513   334.4562 C1            1 RES     
   20955 C1        1032.4689 -1109.4395   334.0948 C1            1 RES     
   20956 H5        1030.9675 -1106.5702   334.9270 H5            1 RES     
   20957 C0        1024.1725 -1107.6662   335.7990 C0            1 RES     
   20958 C0        1024.0005 -1108.5346   334.5031 C0            1 RES     
   20959 C0        1023.3495 -1107.6560   333.3729 C0            1 RES     
   20960 C0        1021.8275 -1107.3275   333.4109 C0            1 RES     
   20961 C0        1021.2781 -1106.4292   334.5385 C0            1 RES     
   20962 C0        1021.9510 -1105.0502   334.6792 C0            1 RES     
   20963 C0        1021.7806 -1104.1639   333.4384 C0            1 RES     
   20964 C0        1022.4172 -1102.7933   333.6585 C0            1 RES     
   20965 C0        1023.1634 -1109.8398   334.6268 C0            1 RES     
   20966 C0        1023.9295 -1111.0715   335.1006 C0            1 RES     
   20967 C0        1022.9720 -1112.2609   335.2995 C0            1 RES     
   20968 C0        1023.6999 -1113.5047   335.8331 C0            1 RES     
   20969 C0        1022.6901 -1114.5904   336.2441 C0            1 RES     
   20970 C0        1023.3285 -1115.7885   336.9711 C0            1 RES     
   20971 C0        1023.9075 -1115.4050   338.3476 C0            1 RES     
   20972 C0        1024.4283 -1116.6255   339.0998 C0            1 RES     
   20973 H6        1023.1765 -1107.4905   336.2291 H6            1 RES     
   20974 H6        1024.5413 -1106.6996   335.3906 H6            1 RES     
   20975 H6        1025.0143 -1108.7692   334.1088 H6            1 RES     
   20976 H6        1023.4901 -1108.2239   332.4256 H6            1 RES     
   20977 H6        1023.9277 -1106.7169   333.2369 H6            1 RES     
   20978 H6        1021.2471 -1108.2742   333.4173 H6            1 RES     
   20979 H6        1021.5870 -1106.8286   332.4481 H6            1 RES     
   20980 H6        1021.3234 -1106.9635   335.5018 H6            1 RES     
   20981 H6        1020.1937 -1106.2695   334.3516 H6            1 RES     
   20982 H6        1023.0273 -1105.1655   334.9038 H6            1 RES     
   20983 H6        1021.4814 -1104.5348   335.5458 H6            1 RES     
   20984 H6        1022.2650 -1104.6355   332.5583 H6            1 RES     
   20985 H6        1020.6981 -1104.0268   333.2260 H6            1 RES     
   20986 H6        1021.9438 -1102.2804   334.5229 H6            1 RES     
   20987 H6        1022.2760 -1102.1666   332.7529 H6            1 RES     
   20988 H6        1023.5062 -1102.9006   333.8510 H6            1 RES     
   20989 H6        1022.7959 -1110.1374   333.6188 H6            1 RES     
   20990 H6        1022.2732 -1109.6330   335.2610 H6            1 RES     
   20991 H6        1024.7247 -1111.3289   334.3674 H6            1 RES     
   20992 H6        1024.4005 -1110.8401   336.0463 H6            1 RES     
   20993 H6        1022.2090 -1111.9495   336.0477 H6            1 RES     
   20994 H6        1022.4521 -1112.5134   334.3497 H6            1 RES     
   20995 H6        1024.4122 -1113.8984   335.0764 H6            1 RES     
   20996 H6        1024.2873 -1113.2087   336.7109 H6            1 RES     
   20997 H6        1021.9214 -1114.1571   336.9221 H6            1 RES     
   20998 H6        1022.1723 -1114.9516   335.3283 H6            1 RES     
   20999 H6        1024.1134 -1116.2489   336.3338 H6            1 RES     
   21000 H6        1022.5264 -1116.5406   337.1366 H6            1 RES     
   21001 H6        1023.1142 -1114.9271   338.9642 H6            1 RES     
   21002 H6        1024.7498 -1114.6971   338.2352 H6            1 RES     
   21003 H6        1024.8284 -1116.3088   340.0846 H6            1 RES     
   21004 H6        1023.6080 -1117.3557   339.2681 H6            1 RES     
   21005 H6        1025.2438 -1117.1141   338.5232 H6            1 RES     
   21006 C0        1024.7065 -1109.0295   338.0372 C0            1 RES     
   21007 C0        1025.5304 -1110.3214   338.3550 C0            1 RES     
   21008 C0        1024.5737 -1111.4813   338.8015 C0            1 RES     
   21009 C0        1023.9175 -1111.4881   340.2042 C0            1 RES     
   21010 C0        1022.8192 -1110.4451   340.4951 C0            1 RES     
   21011 C0        1021.6267 -1110.4353   339.5156 C0            1 RES     
   21012 C0        1020.8731 -1111.7694   339.4374 C0            1 RES     
   21013 C0        1019.6805 -1111.6583   338.4894 C0            1 RES     
   21014 C0        1026.6615 -1110.2085   339.4189 C0            1 RES     
   21015 C0        1027.8571 -1109.3683   339.0028 C0            1 RES     
   21016 C0        1029.0074 -1109.4465   340.0076 C0            1 RES     
   21017 C0        1030.1909 -1108.6177   339.4956 C0            1 RES     
   21018 C0        1031.3754 -1108.6693   340.4682 C0            1 RES     
   21019 C0        1032.6038 -1107.9006   339.9521 C0            1 RES     
   21020 C0        1032.3483 -1106.3943   339.7839 C0            1 RES     
   21021 C0        1033.6139 -1105.6700   339.3377 C0            1 RES     
   21022 H6        1024.4406 -1108.5867   339.0127 H6            1 RES     
   21023 H6        1023.7394 -1109.3535   337.6218 H6            1 RES     
   21024 H6        1025.9921 -1110.6711   337.4109 H6            1 RES     
   21025 H6        1025.1909 -1112.4056   338.7721 H6            1 RES     
   21026 H6        1023.7642 -1111.6122   338.0638 H6            1 RES     
   21027 H6        1024.7006 -1111.4207   340.9866 H6            1 RES     
   21028 H6        1023.4503 -1112.4887   340.3288 H6            1 RES     
   21029 H6        1023.2592 -1109.4344   340.5376 H6            1 RES     
   21030 H6        1022.4277 -1110.6493   341.5153 H6            1 RES     
   21031 H6        1021.9577 -1110.1600   338.4989 H6            1 RES     
   21032 H6        1020.9209 -1109.6469   339.8584 H6            1 RES     
   21033 H6        1021.5439 -1112.5675   339.0556 H6            1 RES     
   21034 H6        1020.5084 -1112.0540   340.4478 H6            1 RES     
   21035 H6        1018.9722 -1110.8812   338.8489 H6            1 RES     
   21036 H6        1019.1475 -1112.6305   338.4408 H6            1 RES     
   21037 H6        1020.0234 -1111.3899   337.4666 H6            1 RES     
   21038 H6        1027.0561 -1111.2348   339.5917 H6            1 RES     
   21039 H6        1026.2552 -1109.8257   340.3802 H6            1 RES     
   21040 H6        1028.2363 -1109.7626   338.0391 H6            1 RES     
   21041 H6        1027.5409 -1108.3153   338.9240 H6            1 RES     
   21042 H6        1028.6702 -1109.0602   340.9938 H6            1 RES     
   21043 H6        1029.3280 -1110.5062   340.1249 H6            1 RES     
   21044 H6        1030.5162 -1109.0138   338.5075 H6            1 RES     
   21045 H6        1029.8494 -1107.5696   339.3684 H6            1 RES     
   21046 H6        1031.0688 -1108.2621   341.4563 H6            1 RES     
   21047 H6        1031.6743 -1109.7317   340.6068 H6            1 RES     
   21048 H6        1032.9322 -1108.3361   338.9825 H6            1 RES     
   21049 H6        1033.4230 -1108.0412   340.6908 H6            1 RES     
   21050 H6        1032.0098 -1105.9639   340.7512 H6            1 RES     
   21051 H6        1031.5670 -1106.2156   339.0163 H6            1 RES     
   21052 H6        1033.4004 -1104.5861   339.2247 H6            1 RES     
   21053 H6        1034.4183 -1105.7977   340.0929 H6            1 RES     
   21054 H6        1033.9615 -1106.0684   338.3606 H6            1 RES     
   21055 C0        1036.1355 -1111.9118   330.9866 C0            1 RES     
   21056 C1        1035.4239 -1111.0796   332.0611 C1            1 RES     
   21057 C1        1036.2806 -1110.4119   332.8653 C1            1 RES     
   21058 S2        1035.4889 -1109.4900   334.0136 S2            1 RES     
   21059 C1        1033.9509 -1109.9620   333.4461 C1            1 RES     
   21060 C1        1034.0822 -1110.8360   332.3609 C1            1 RES     
   21061 C1        1037.6028 -1110.7167   332.4533 C1            1 RES     
   21062 C1        1037.5756 -1111.5939   331.4075 C1            1 RES     
   21063 C1        1038.8556 -1111.9628   330.9814 C1            1 RES     
   21064 C1        1039.8608 -1111.3328   331.7593 C1            1 RES     
   21065 S2        1039.1413 -1110.3098   332.9213 S2            1 RES     
   21066 H3        1033.2505 -1111.2688   331.8226 H3            1 RES     
   21067 H3        1039.0293 -1112.6526   330.1692 H3            1 RES     
   21068 N4        1043.5516 -1110.7014   332.2019 N4            1 RES     
   21069 C1        1042.1973 -1110.5468   332.2344 C1            1 RES     
   21070 C1        1041.3344 -1111.5203   331.6795 C1            1 RES     
   21071 C1        1041.9341 -1112.6595   331.1128 C1            1 RES     
   21072 N4        1041.2533 -1113.7067   330.5824 N4            1 RES     
   21073 S2        1042.4662 -1114.7363   330.1344 S2            1 RES     
   21074 N4        1043.8429 -1113.9379   330.5756 N4            1 RES     
   21075 C1        1043.3513 -1112.7954   331.1126 C1            1 RES     
   21076 C1        1044.1465 -1111.7965   331.6581 C1            1 RES     
   21077 H5        1041.7994 -1109.6487   332.6869 H5            1 RES     
   21078 C0        1035.7533 -1111.1754   329.6459 C0            1 RES     
   21079 C0        1036.3596 -1111.3676   328.2112 C0            1 RES     
   21080 C0        1036.0619 -1110.0880   327.3468 C0            1 RES     
   21081 C0        1034.6379 -1109.8471   326.7635 C0            1 RES     
   21082 C0        1033.4657 -1109.5685   327.7272 C0            1 RES     
   21083 C0        1033.6661 -1108.3873   328.6960 C0            1 RES     
   21084 C0        1033.8334 -1107.0398   327.9815 C0            1 RES     
   21085 C0        1033.9703 -1105.9028   328.9917 C0            1 RES     
   21086 C0        1035.8860 -1112.6064   327.3984 C0            1 RES     
   21087 C0        1036.6469 -1113.9014   327.6678 C0            1 RES     
   21088 C0        1036.0087 -1115.0737   326.9000 C0            1 RES     
   21089 C0        1036.7137 -1116.4074   327.1930 C0            1 RES     
   21090 C0        1035.9150 -1117.5843   326.6063 C0            1 RES     
   21091 C0        1036.4488 -1118.9668   327.0251 C0            1 RES     
   21092 C0        1036.2791 -1119.2340   328.5340 C0            1 RES     
   21093 C0        1036.7049 -1120.6506   328.9068 C0            1 RES     
   21094 H6        1034.6587 -1111.2359   329.5670 H6            1 RES     
   21095 H6        1036.0191 -1110.1204   329.8773 H6            1 RES     
   21096 H6        1037.4685 -1111.3754   328.3042 H6            1 RES     
   21097 H6        1036.7219 -1110.1627   326.4533 H6            1 RES     
   21098 H6        1036.4016 -1109.1760   327.8831 H6            1 RES     
   21099 H6        1034.3532 -1110.7073   326.1217 H6            1 RES     
   21100 H6        1034.7180 -1108.9723   326.0837 H6            1 RES     
   21101 H6        1033.2233 -1110.4795   328.2989 H6            1 RES     
   21102 H6        1032.5597 -1109.3664   327.1150 H6            1 RES     
   21103 H6        1034.5385 -1108.5671   329.3509 H6            1 RES     
   21104 H6        1032.7655 -1108.3303   329.3461 H6            1 RES     
   21105 H6        1034.7423 -1107.0513   327.3448 H6            1 RES     
   21106 H6        1032.9453 -1106.8462   327.3416 H6            1 RES     
   21107 H6        1033.0678 -1105.8471   329.6372 H6            1 RES     
   21108 H6        1034.0825 -1104.9377   328.4543 H6            1 RES     
   21109 H6        1034.8655 -1106.0606   329.6306 H6            1 RES     
   21110 H6        1036.0636 -1112.4243   326.3144 H6            1 RES     
   21111 H6        1034.7898 -1112.7291   327.5429 H6            1 RES     
   21112 H6        1037.7140 -1113.7811   327.3799 H6            1 RES     
   21113 H6        1036.6019 -1114.1120   328.7276 H6            1 RES     
   21114 H6        1034.9504 -1115.1517   327.2361 H6            1 RES     
   21115 H6        1036.0176 -1114.8812   325.8050 H6            1 RES     
   21116 H6        1037.7508 -1116.4000   326.7939 H6            1 RES     
   21117 H6        1036.7838 -1116.5269   328.2812 H6            1 RES     
   21118 H6        1034.8526 -1117.5221   326.9314 H6            1 RES     
   21119 H6        1035.9373 -1117.5040   325.4971 H6            1 RES     
   21120 H6        1037.5146 -1119.0712   326.7292 H6            1 RES     
   21121 H6        1035.8566 -1119.7305   326.4752 H6            1 RES     
   21122 H6        1035.2106 -1119.1048   328.8163 H6            1 RES     
   21123 H6        1036.8945 -1118.5328   329.1280 H6            1 RES     
   21124 H6        1036.5610 -1120.8044   329.9958 H6            1 RES     
   21125 H6        1036.0903 -1121.3965   328.3587 H6            1 RES     
   21126 H6        1037.7783 -1120.8068   328.6625 H6            1 RES     
   21127 C0        1035.5936 -1113.3909   331.1357 C0            1 RES     
   21128 C0        1036.4856 -1114.6677   331.2876 C0            1 RES     
   21129 C0        1035.7359 -1115.9256   330.7259 C0            1 RES     
   21130 C0        1034.5687 -1116.5810   331.5046 C0            1 RES     
   21131 C0        1033.2377 -1115.8076   331.6009 C0            1 RES     
   21132 C0        1032.6094 -1115.3831   330.2567 C0            1 RES     
   21133 C0        1032.3014 -1116.5545   329.3150 C0            1 RES     
   21134 C0        1031.6355 -1116.0540   328.0347 C0            1 RES     
   21135 C0        1036.9952 -1115.0223   332.7154 C0            1 RES     
   21136 C0        1038.0167 -1114.0577   333.2939 C0            1 RES     
   21137 C0        1038.6136 -1114.5555   334.6110 C0            1 RES     
   21138 C0        1039.6680 -1113.5579   335.1040 C0            1 RES     
   21139 C0        1040.3022 -1114.0167   336.4226 C0            1 RES     
   21140 C0        1041.4117 -1113.0699   336.9111 C0            1 RES     
   21141 C0        1040.9019 -1111.6566   337.2355 C0            1 RES     
   21142 C0        1042.0249 -1110.7802   337.7797 C0            1 RES     
   21143 H6        1034.8419 -1113.4432   331.9424 H6            1 RES     
   21144 H6        1035.0020 -1113.5140   330.2150 H6            1 RES     
   21145 H6        1037.3729 -1114.5420   330.6367 H6            1 RES     
   21146 H6        1036.5072 -1116.7223   330.6466 H6            1 RES     
   21147 H6        1035.3729 -1115.7272   329.7033 H6            1 RES     
   21148 H6        1034.9046 -1116.8567   332.5249 H6            1 RES     
   21149 H6        1034.3454 -1117.5401   330.9896 H6            1 RES     
   21150 H6        1033.3639 -1114.9156   332.2376 H6            1 RES     
   21151 H6        1032.5111 -1116.4600   332.1322 H6            1 RES     
   21152 H6        1033.2648 -1114.6704   329.7262 H6            1 RES     
   21153 H6        1031.6599 -1114.8513   330.4865 H6            1 RES     
   21154 H6        1033.2391 -1117.0782   329.0340 H6            1 RES     
   21155 H6        1031.6214 -1117.2735   329.8207 H6            1 RES     
   21156 H6        1030.6794 -1115.5398   328.2718 H6            1 RES     
   21157 H6        1031.4215 -1116.9110   327.3627 H6            1 RES     
   21158 H6        1032.3055 -1115.3444   327.5025 H6            1 RES     
   21159 H6        1037.5105 -1116.0065   332.6472 H6            1 RES     
   21160 H6        1036.1411 -1115.1249   333.4194 H6            1 RES     
   21161 H6        1038.8508 -1113.9648   332.5703 H6            1 RES     
   21162 H6        1037.5236 -1113.0904   333.4842 H6            1 RES     
   21163 H6        1037.8086 -1114.6647   335.3695 H6            1 RES     
   21164 H6        1039.0959 -1115.5461   334.4504 H6            1 RES     
   21165 H6        1040.4659 -1113.4569   334.3344 H6            1 RES     
   21166 H6        1039.1745 -1112.5737   335.2421 H6            1 RES     
   21167 H6        1039.5180 -1114.1075   337.2056 H6            1 RES     
   21168 H6        1040.7570 -1115.0198   336.2672 H6            1 RES     
   21169 H6        1042.2138 -1113.0123   336.1423 H6            1 RES     
   21170 H6        1041.8473 -1113.5107   337.8345 H6            1 RES     
   21171 H6        1040.0932 -1111.7181   337.9955 H6            1 RES     
   21172 H6        1040.5028 -1111.1680   336.3225 H6            1 RES     
   21173 H6        1041.6288 -1109.7675   338.0050 H6            1 RES     
   21174 H6        1042.4373 -1111.2172   338.7138 H6            1 RES     
   21175 H6        1042.8381 -1110.6856   337.0287 H6            1 RES     
   21176 C0        1049.2569 -1112.5116   330.0493 C0            1 RES     
   21177 C1        1047.9813 -1112.2718   330.8670 C1            1 RES     
   21178 C1        1048.2296 -1112.0205   332.1715 C1            1 RES     
   21179 S2        1046.8313 -1111.7359   333.0427 S2            1 RES     
   21180 C1        1045.8408 -1111.9352   331.6682 C1            1 RES     
   21181 C1        1046.6239 -1112.2208   330.5439 C1            1 RES     
   21182 C1        1049.6321 -1112.0758   332.3735 C1            1 RES     
   21183 C1        1050.2608 -1112.3857   331.2019 C1            1 RES     
   21184 C1        1051.6477 -1112.4926   331.3476 C1            1 RES     
   21185 C1        1052.0459 -1112.2597   332.6891 C1            1 RES     
   21186 S2        1050.6808 -1111.8895   333.6451 S2            1 RES     
   21187 H3        1046.2287 -1112.3822   329.5507 H3            1 RES     
   21188 H3        1052.3083 -1112.7364   330.5292 H3            1 RES     
   21189 N4        1054.9324 -1111.8127   335.0735 N4            1 RES     
   21190 C1        1053.6986 -1111.7204   334.5003 C1            1 RES     
   21191 C1        1053.4117 -1112.3572   333.2705 C1            1 RES     
   21192 C1        1054.4470 -1113.1030   332.6784 C1            1 RES     
   21193 N4        1054.3263 -1113.8124   331.5279 N4            1 RES     
   21194 S2        1055.8209 -1114.5001   331.3693 S2            1 RES     
   21195 N4        1056.6466 -1113.9564   332.6922 N4            1 RES     
   21196 C1        1055.7176 -1113.1917   333.3147 C1            1 RES     
   21197 C1        1055.9432 -1112.5296   334.5140 C1            1 RES     
   21198 H5        1052.9454 -1111.1334   335.0079 H5            1 RES     
   21199 C0        1049.3172 -1111.2575   329.0957 C0            1 RES     
   21200 C0        1050.5017 -1110.7663   328.1909 C0            1 RES     
   21201 C0        1050.3044 -1109.2413   327.8614 C0            1 RES     
   21202 C0        1049.2508 -1108.7952   326.8046 C0            1 RES     
   21203 C0        1047.7513 -1109.0093   327.0981 C0            1 RES     
   21204 C0        1047.2343 -1108.3896   328.4107 C0            1 RES     
   21205 C0        1047.3636 -1106.8612   328.4508 C0            1 RES     
   21206 C0        1046.7841 -1106.3012   329.7479 C0            1 RES     
   21207 C0        1050.7274 -1111.5141   326.8458 C0            1 RES     
   21208 C0        1051.5856 -1112.7731   326.9279 C0            1 RES     
   21209 C0        1051.6327 -1113.4858   325.5637 C0            1 RES     
   21210 C0        1052.4412 -1114.7914   325.6222 C0            1 RES     
   21211 C0        1052.2723 -1115.5937   324.3202 C0            1 RES     
   21212 C0        1052.8894 -1117.0035   324.3754 C0            1 RES     
   21213 C0        1052.1641 -1117.9280   325.3736 C0            1 RES     
   21214 C0        1052.7145 -1119.3498   325.3270 C0            1 RES     
   21215 H6        1048.4088 -1111.3008   328.4785 H6            1 RES     
   21216 H6        1049.2004 -1110.4154   329.8130 H6            1 RES     
   21217 H6        1051.4328 -1110.7900   328.7999 H6            1 RES     
   21218 H6        1051.2781 -1108.8888   327.4525 H6            1 RES     
   21219 H6        1050.1567 -1108.6629   328.7986 H6            1 RES     
   21220 H6        1049.4790 -1109.2784   325.8313 H6            1 RES     
   21221 H6        1049.4015 -1107.7060   326.6474 H6            1 RES     
   21222 H6        1047.5134 -1110.0856   327.0777 H6            1 RES     
   21223 H6        1047.1717 -1108.5730   326.2555 H6            1 RES     
   21224 H6        1047.7612 -1108.8262   329.2790 H6            1 RES     
   21225 H6        1046.1580 -1108.6534   328.5048 H6            1 RES     
   21226 H6        1048.4306 -1106.5629   328.3887 H6            1 RES     
   21227 H6        1046.8133 -1106.4196   327.5918 H6            1 RES     
   21228 H6        1045.7083 -1106.5641   329.8371 H6            1 RES     
   21229 H6        1046.8808 -1105.1951   329.7528 H6            1 RES     
   21230 H6        1047.3324 -1106.7104   330.6234 H6            1 RES     
   21231 H6        1051.2995 -1110.8575   326.1521 H6            1 RES     
   21232 H6        1049.7376 -1111.7139   326.3791 H6            1 RES     
   21233 H6        1052.6116 -1112.5114   327.2671 H6            1 RES     
   21234 H6        1051.1465 -1113.4412   327.6562 H6            1 RES     
   21235 H6        1050.5840 -1113.7315   325.2829 H6            1 RES     
   21236 H6        1052.0596 -1112.8188   324.7833 H6            1 RES     
   21237 H6        1053.5149 -1114.5806   325.8161 H6            1 RES     
   21238 H6        1052.0689 -1115.3884   326.4638 H6            1 RES     
   21239 H6        1051.1913 -1115.7094   324.0830 H6            1 RES     
   21240 H6        1052.7436 -1115.0200   323.4920 H6            1 RES     
   21241 H6        1053.9709 -1116.9385   324.6211 H6            1 RES     
   21242 H6        1052.7870 -1117.4493   323.3619 H6            1 RES     
   21243 H6        1051.0801 -1117.9648   325.1254 H6            1 RES     
   21244 H6        1052.2829 -1117.5573   326.4088 H6            1 RES     
   21245 H6        1052.1630 -1119.9827   326.0520 H6            1 RES     
   21246 H6        1052.5876 -1119.7811   324.3110 H6            1 RES     
   21247 H6        1053.7931 -1119.3542   325.5969 H6            1 RES     
   21248 C0        1049.0718 -1113.9102   329.3329 C0            1 RES     
   21249 C0        1050.0900 -1115.0969   329.3935 C0            1 RES     
   21250 C0        1049.9726 -1115.9817   328.1038 C0            1 RES     
   21251 C0        1048.7780 -1116.9448   327.8948 C0            1 RES     
   21252 C0        1047.3905 -1116.3292   327.6215 C0            1 RES     
   21253 C0        1047.3114 -1115.3572   326.4253 C0            1 RES     
   21254 C0        1047.7205 -1115.9828   325.0855 C0            1 RES     
   21255 C0        1047.5634 -1114.9728   323.9505 C0            1 RES     
   21256 C0        1050.0134 -1116.0471   330.6245 C0            1 RES     
   21257 C0        1050.4309 -1115.4254   331.9465 C0            1 RES     
   21258 C0        1050.5116 -1116.4511   333.0779 C0            1 RES     
   21259 C0        1050.9864 -1115.7606   334.3615 C0            1 RES     
   21260 C0        1051.0896 -1116.7515   335.5272 C0            1 RES     
   21261 C0        1051.6265 -1116.1028   336.8145 C0            1 RES     
   21262 C0        1050.7075 -1115.0010   337.3658 C0            1 RES     
   21263 C0        1051.2492 -1114.4400   338.6763 C0            1 RES     
   21264 H6        1048.0850 -1114.3388   329.5801 H6            1 RES     
   21265 H6        1048.9751 -1113.6172   328.2758 H6            1 RES     
   21266 H6        1051.1117 -1114.6703   329.3627 H6            1 RES     
   21267 H6        1050.8694 -1116.6386   328.1095 H6            1 RES     
   21268 H6        1050.0424 -1115.3506   327.2018 H6            1 RES     
   21269 H6        1048.7038 -1117.6444   328.7520 H6            1 RES     
   21270 H6        1049.0295 -1117.5722   327.0127 H6            1 RES     
   21271 H6        1047.0184 -1115.8189   328.5259 H6            1 RES     
   21272 H6        1046.6852 -1117.1677   327.4337 H6            1 RES     
   21273 H6        1047.9397 -1114.4669   326.6024 H6            1 RES     
   21274 H6        1046.2578 -1115.0086   326.3490 H6            1 RES     
   21275 H6        1048.7835 -1116.3013   325.1191 H6            1 RES     
   21276 H6        1047.0826 -1116.8681   324.8746 H6            1 RES     
   21277 H6        1046.5051 -1114.6434   323.8699 H6            1 RES     
   21278 H6        1047.8654 -1115.4380   322.9892 H6            1 RES     
   21279 H6        1048.2059 -1114.0841   324.1321 H6            1 RES     
   21280 H6        1050.7265 -1116.8821   330.4423 H6            1 RES     
   21281 H6        1048.9927 -1116.4765   330.7221 H6            1 RES     
   21282 H6        1051.4448 -1114.9962   331.8201 H6            1 RES     
   21283 H6        1049.6895 -1114.6602   332.2289 H6            1 RES     
   21284 H6        1049.5122 -1116.9100   333.2395 H6            1 RES     
   21285 H6        1051.2365 -1117.2508   332.8046 H6            1 RES     
   21286 H6        1051.9861 -1115.3043   334.1845 H6            1 RES     
   21287 H6        1050.2626 -1114.9568   334.6092 H6            1 RES     
   21288 H6        1050.0937 -1117.2044   335.7253 H6            1 RES     
   21289 H6        1051.7913 -1117.5652   335.2397 H6            1 RES     
   21290 H6        1052.6399 -1115.6855   336.6235 H6            1 RES     
   21291 H6        1051.7198 -1116.9034   337.5807 H6            1 RES     
   21292 H6        1049.6929 -1115.4180   337.5453 H6            1 RES     
   21293 H6        1050.6302 -1114.1617   336.6440 H6            1 RES     
   21294 H6        1050.5668 -1113.6480   339.0507 H6            1 RES     
   21295 H6        1051.3169 -1115.2427   339.4410 H6            1 RES     
   21296 H6        1052.2560 -1113.9975   338.5188 H6            1 RES     
   21297 C0        1061.2610 -1112.3230   335.4603 C0            1 RES     
   21298 C1        1059.7423 -1112.5081   335.5741 C1            1 RES     
   21299 C1        1059.3458 -1112.8683   336.8149 C1            1 RES     
   21300 S2        1057.6866 -1113.0404   336.9284 S2            1 RES     
   21301 C1        1057.4521 -1112.6191   335.2919 C1            1 RES     
   21302 C1        1058.6816 -1112.3475   334.6806 C1            1 RES     
   21303 C1        1060.4984 -1112.9769   337.6336 C1            1 RES     
   21304 C1        1061.6188 -1112.7090   336.9008 C1            1 RES     
   21305 C1        1062.7939 -1112.8387   337.6480 C1            1 RES     
   21306 C1        1062.5169 -1113.2285   338.9835 C1            1 RES     
   21307 S2        1060.8304 -1113.3619   339.2126 S2            1 RES     
   21308 H3        1058.7963 -1112.0514   333.6472 H3            1 RES     
   21309 H3        1063.7765 -1112.6709   337.2331 H3            1 RES     
   21310 N4        1063.9202 -1113.8422   342.4290 N4            1 RES     
   21311 C1        1063.0637 -1113.5290   341.4153 C1            1 RES     
   21312 C1        1063.4865 -1113.5472   340.0658 C1            1 RES     
   21313 C1        1064.8196 -1113.9208   339.8171 C1            1 RES     
   21314 N4        1065.3713 -1114.0358   338.5827 N4            1 RES     
   21315 S2        1066.9078 -1114.5431   338.9196 S2            1 RES     
   21316 N4        1066.9383 -1114.6377   340.5681 N4            1 RES     
   21317 C1        1065.6806 -1114.2586   340.8996 C1            1 RES     
   21318 C1        1065.2112 -1114.2054   342.2051 C1            1 RES     
   21319 H5        1062.0507 -1113.2522   341.6736 H5            1 RES     
   21320 C0        1061.4204 -1110.7723   335.2249 C0            1 RES     
   21321 C0        1062.7226 -1109.8981   335.2802 C0            1 RES     
   21322 C0        1062.3277 -1108.3938   335.5135 C0            1 RES     
   21323 C0        1061.7498 -1107.5423   334.3444 C0            1 RES     
   21324 C0        1060.3661 -1107.9002   333.7633 C0            1 RES     
   21325 C0        1059.2099 -1107.9530   334.7804 C0            1 RES     
   21326 C0        1058.9425 -1106.6054   335.4637 C0            1 RES     
   21327 C0        1057.7524 -1106.7058   336.4153 C0            1 RES     
   21328 C0        1063.6686 -1109.9515   334.0466 C0            1 RES     
   21329 C0        1064.6828 -1111.0916   334.0429 C0            1 RES     
   21330 C0        1065.4725 -1111.1091   332.7211 C0            1 RES     
   21331 C0        1066.4643 -1112.2811   332.6568 C0            1 RES     
   21332 C0        1067.0602 -1112.4116   331.2442 C0            1 RES     
   21333 C0        1067.9110 -1113.6795   331.0442 C0            1 RES     
   21334 C0        1067.0733 -1114.9717   331.1183 C0            1 RES     
   21335 C0        1067.9119 -1116.2059   330.8014 C0            1 RES     
   21336 H6        1060.8991 -1110.5525   334.2826 H6            1 RES     
   21337 H6        1060.8137 -1110.3485   336.0553 H6            1 RES     
   21338 H6        1063.2832 -1110.1733   336.2013 H6            1 RES     
   21339 H6        1063.2682 -1107.8725   335.8018 H6            1 RES     
   21340 H6        1061.6633 -1108.3053   336.3997 H6            1 RES     
   21341 H6        1062.4772 -1107.5278   333.5056 H6            1 RES     
   21342 H6        1061.6893 -1106.4966   334.7140 H6            1 RES     
   21343 H6        1060.4227 -1108.8560   333.2168 H6            1 RES     
   21344 H6        1060.1137 -1107.1433   332.9888 H6            1 RES     
   21345 H6        1059.4053 -1108.7229   335.5494 H6            1 RES     
   21346 H6        1058.2922 -1108.2553   334.2294 H6            1 RES     
   21347 H6        1059.8301 -1106.2869   336.0486 H6            1 RES     
   21348 H6        1058.7215 -1105.8358   334.6926 H6            1 RES     
   21349 H6        1056.8372 -1107.0051   335.8611 H6            1 RES     
   21350 H6        1057.5719 -1105.7196   336.8924 H6            1 RES     
   21351 H6        1057.9570 -1107.4540   337.2108 H6            1 RES     
   21352 H6        1064.3069 -1109.0393   334.0335 H6            1 RES     
   21353 H6        1063.0495 -1109.9412   333.1225 H6            1 RES     
   21354 H6        1065.3729 -1110.9882   334.9084 H6            1 RES     
   21355 H6        1064.1487 -1112.0266   334.1433 H6            1 RES     
   21356 H6        1064.7339 -1111.2251   331.8964 H6            1 RES     
   21357 H6        1066.0182 -1110.1517   332.5735 H6            1 RES     
   21358 H6        1067.2700 -1112.1564   333.4119 H6            1 RES     
   21359 H6        1065.9237 -1113.2025   332.9059 H6            1 RES     
   21360 H6        1066.2440 -1112.4322   330.4881 H6            1 RES     
   21361 H6        1067.6872 -1111.5148   331.0447 H6            1 RES     
   21362 H6        1068.7361 -1113.7079   331.7876 H6            1 RES     
   21363 H6        1068.3578 -1113.6210   330.0276 H6            1 RES     
   21364 H6        1066.2403 -1114.9171   330.3826 H6            1 RES     
   21365 H6        1066.6495 -1115.1066   332.1309 H6            1 RES     
   21366 H6        1067.2727 -1117.1106   330.8581 H6            1 RES     
   21367 H6        1068.3348 -1116.1338   329.7765 H6            1 RES     
   21368 H6        1068.7407 -1116.3072   331.5356 H6            1 RES     
   21369 C0        1061.7358 -1113.2504   334.2694 C0            1 RES     
   21370 C0        1062.8817 -1114.3126   334.3545 C0            1 RES     
   21371 C0        1063.5369 -1114.5210   332.9448 C0            1 RES     
   21372 C0        1062.8109 -1115.3125   331.8291 C0            1 RES     
   21373 C0        1061.5685 -1114.6716   331.1776 C0            1 RES     
   21374 C0        1061.7762 -1113.2659   330.5754 C0            1 RES     
   21375 C0        1062.8511 -1113.2085   329.4822 C0            1 RES     
   21376 C0        1062.9556 -1111.7983   328.9048 C0            1 RES     
   21377 C0        1062.5179 -1115.7183   334.9167 C0            1 RES     
   21378 C0        1062.1737 -1115.7522   336.3962 C0            1 RES     
   21379 C0        1062.0077 -1117.1765   336.9275 C0            1 RES     
   21380 C0        1061.7134 -1117.1304   338.4312 C0            1 RES     
   21381 C0        1061.5441 -1118.5387   339.0139 C0            1 RES     
   21382 C0        1061.3125 -1118.5302   340.5346 C0            1 RES     
   21383 C0        1060.0137 -1117.8181   340.9450 C0            1 RES     
   21384 C0        1059.7973 -1117.8981   342.4524 C0            1 RES     
   21385 H6        1060.8706 -1113.7668   333.8185 H6            1 RES     
   21386 H6        1062.0305 -1112.5133   333.5061 H6            1 RES     
   21387 H6        1063.6860 -1113.8950   334.9912 H6            1 RES     
   21388 H6        1064.4742 -1115.0888   333.1320 H6            1 RES     
   21389 H6        1063.8309 -1113.5488   332.5144 H6            1 RES     
   21390 H6        1062.5485 -1116.3256   332.1959 H6            1 RES     
   21391 H6        1063.5543 -1115.4673   331.0177 H6            1 RES     
   21392 H6        1060.7381 -1114.6342   331.9029 H6            1 RES     
   21393 H6        1061.2314 -1115.3505   330.3644 H6            1 RES     
   21394 H6        1062.0384 -1112.5378   331.3629 H6            1 RES     
   21395 H6        1060.8053 -1112.9446   330.1379 H6            1 RES     
   21396 H6        1063.8412 -1113.4834   329.9025 H6            1 RES     
   21397 H6        1062.5938 -1113.9170   328.6657 H6            1 RES     
   21398 H6        1061.9870 -1111.4924   328.4543 H6            1 RES     
   21399 H6        1063.7382 -1111.7715   328.1183 H6            1 RES     
   21400 H6        1063.2287 -1111.0734   329.7021 H6            1 RES     
   21401 H6        1063.4168 -1116.3640   334.7985 H6            1 RES     
   21402 H6        1061.6869 -1116.1685   334.3316 H6            1 RES     
   21403 H6        1063.0112 -1115.2892   336.9552 H6            1 RES     
   21404 H6        1061.2242 -1115.2145   336.5522 H6            1 RES     
   21405 H6        1061.1750 -1117.6815   336.3917 H6            1 RES     
   21406 H6        1062.9471 -1117.7493   336.7573 H6            1 RES     
   21407 H6        1062.5535 -1116.6207   338.9541 H6            1 RES     
   21408 H6        1060.7848 -1116.5422   338.5836 H6            1 RES     
   21409 H6        1060.6976 -1119.0548   338.5107 H6            1 RES     
   21410 H6        1062.4727 -1119.1182   338.8159 H6            1 RES     
   21411 H6        1062.1798 -1118.0486   341.0382 H6            1 RES     
   21412 H6        1061.2590 -1119.5884   340.8724 H6            1 RES     
   21413 H6        1059.1502 -1118.2942   340.4319 H6            1 RES     
   21414 H6        1060.0531 -1116.7450   340.6647 H6            1 RES     
   21415 H6        1058.8539 -1117.3768   342.7196 H6            1 RES     
   21416 H6        1059.7225 -1118.9580   342.7758 H6            1 RES     
   21417 H6        1060.6385 -1117.4094   342.9887 H6            1 RES     
   21418 C0        1069.4062 -1114.3277   345.6116 C0            1 RES     
   21419 C1        1068.0751 -1114.5789   344.8914 C1            1 RES     
   21420 C1        1067.2875 -1115.4701   345.5331 C1            1 RES     
   21421 S2        1065.8307 -1115.7128   344.7494 S2            1 RES     
   21422 C1        1066.2205 -1114.6025   343.5142 C1            1 RES     
   21423 C1        1067.4895 -1114.0558   343.7369 C1            1 RES     
   21424 C1        1067.9727 -1115.9109   346.6937 C1            1 RES     
   21425 C1        1069.1989 -1115.3151   346.7666 C1            1 RES     
   21426 C1        1069.9392 -1115.7417   347.8739 C1            1 RES     
   21427 C1        1069.2229 -1116.6996   348.6366 C1            1 RES     
   21428 S2        1067.6839 -1116.9606   347.9453 S2            1 RES     
   21429 H3        1067.9581 -1113.3219   343.0962 H3            1 RES     
   21430 H3        1070.9339 -1115.3821   348.0906 H3            1 RES     
   21431 N4        1069.1319 -1118.7728   351.7847 N4            1 RES     
   21432 C1        1068.7395 -1118.0546   350.6940 C1            1 RES     
   21433 C1        1069.6862 -1117.4510   349.8340 C1            1 RES     
   21434 C1        1071.0452 -1117.6412   350.1429 C1            1 RES     
   21435 N4        1072.0786 -1117.1729   349.3984 N4            1 RES     
   21436 S2        1073.3986 -1117.7426   350.2139 S2            1 RES     
   21437 N4        1072.7478 -1118.5716   351.4854 N4            1 RES     
   21438 C1        1071.4181 -1118.4122   351.2802 C1            1 RES     
   21439 C1        1070.4412 -1118.9659   352.0966 C1            1 RES     
   21440 H5        1067.6791 -1117.9478   350.5109 H5            1 RES     
   21441 C0        1069.2768 -1112.8349   346.1020 C0            1 RES     
   21442 C0        1070.1833 -1112.0508   347.1152 C0            1 RES     
   21443 C0        1069.3816 -1110.8241   347.6859 C0            1 RES     
   21444 C0        1069.1707 -1109.5493   346.8162 C0            1 RES     
   21445 C0        1068.2936 -1109.6372   345.5499 C0            1 RES     
   21446 C0        1066.8642 -1110.1707   345.7654 C0            1 RES     
   21447 C0        1066.0202 -1109.2842   346.6908 C0            1 RES     
   21448 C0        1064.6003 -1109.8312   346.8201 C0            1 RES     
   21449 C0        1071.5461 -1111.5190   346.5868 C0            1 RES     
   21450 C0        1072.7047 -1112.5107   346.6374 C0            1 RES     
   21451 C0        1073.9599 -1111.9105   345.9776 C0            1 RES     
   21452 C0        1075.1323 -1112.9038   345.9576 C0            1 RES     
   21453 C0        1076.2836 -1112.3678   345.0889 C0            1 RES     
   21454 C0        1077.4132 -1113.3884   344.8569 C0            1 RES     
   21455 C0        1076.9570 -1114.5933   344.0099 C0            1 RES     
   21456 C0        1078.1176 -1115.5312   343.6933 C0            1 RES     
   21457 H6        1069.1693 -1112.2248   345.1942 H6            1 RES     
   21458 H6        1068.2935 -1112.8464   346.6218 H6            1 RES     
   21459 H6        1070.3473 -1112.6999   348.0040 H6            1 RES     
   21460 H6        1069.9570 -1110.4681   348.5701 H6            1 RES     
   21461 H6        1068.4039 -1111.1610   348.0923 H6            1 RES     
   21462 H6        1070.1589 -1109.1405   346.5173 H6            1 RES     
   21463 H6        1068.7124 -1108.7855   347.4797 H6            1 RES     
   21464 H6        1068.8023 -1110.2411   344.7805 H6            1 RES     
   21465 H6        1068.2220 -1108.6180   345.1114 H6            1 RES     
   21466 H6        1066.8915 -1111.2003   346.1669 H6            1 RES     
   21467 H6        1066.3683 -1110.2120   344.7708 H6            1 RES     
   21468 H6        1066.4717 -1109.2445   347.7037 H6            1 RES     
   21469 H6        1065.9716 -1108.2543   346.2752 H6            1 RES     
   21470 H6        1064.1072 -1109.8683   345.8252 H6            1 RES     
   21471 H6        1064.0057 -1109.1717   347.4867 H6            1 RES     
   21472 H6        1064.6192 -1110.8534   347.2552 H6            1 RES     
   21473 H6        1071.8925 -1110.6851   347.2383 H6            1 RES     
   21474 H6        1071.3951 -1111.1060   345.5649 H6            1 RES     
   21475 H6        1072.9156 -1112.7941   347.6916 H6            1 RES     
   21476 H6        1072.4177 -1113.4019   346.0962 H6            1 RES     
   21477 H6        1073.6924 -1111.6579   344.9271 H6            1 RES     
   21478 H6        1074.2719 -1110.9777   346.4961 H6            1 RES     
   21479 H6        1075.4860 -1113.1157   346.9896 H6            1 RES     
   21480 H6        1074.7733 -1113.8504   345.5351 H6            1 RES     
   21481 H6        1075.8965 -1112.0629   344.0912 H6            1 RES     
   21482 H6        1076.7030 -1111.4637   345.5828 H6            1 RES     
   21483 H6        1077.8252 -1113.7311   345.8301 H6            1 RES     
   21484 H6        1078.2213 -1112.8664   344.2992 H6            1 RES     
   21485 H6        1076.5287 -1114.2309   343.0491 H6            1 RES     
   21486 H6        1076.1889 -1115.1811   344.5462 H6            1 RES     
   21487 H6        1077.7501 -1116.3781   343.0785 H6            1 RES     
   21488 H6        1078.9051 -1114.9938   343.1227 H6            1 RES     
   21489 H6        1078.5540 -1115.9346   344.6330 H6            1 RES     
   21490 C0        1070.5470 -1114.6052   344.5508 C0            1 RES     
   21491 C0        1071.7645 -1115.5647   344.7652 C0            1 RES     
   21492 C0        1072.9849 -1115.0980   343.8976 C0            1 RES     
   21493 C0        1073.0125 -1115.3158   342.3645 C0            1 RES     
   21494 C0        1072.0513 -1114.4782   341.4966 C0            1 RES     
   21495 C0        1072.1543 -1112.9478   341.6669 C0            1 RES     
   21496 C0        1073.5439 -1112.3777   341.3540 C0            1 RES     
   21497 C0        1073.5451 -1110.8568   341.4954 C0            1 RES     
   21498 C0        1071.5421 -1117.0805   344.4876 C0            1 RES     
   21499 C0        1070.6213 -1117.7876   345.4678 C0            1 RES     
   21500 C0        1070.5892 -1119.3016   345.2549 C0            1 RES     
   21501 C0        1069.6827 -1119.9472   346.3092 C0            1 RES     
   21502 C0        1069.6222 -1121.4702   346.1413 C0            1 RES     
   21503 C0        1068.7723 -1122.1556   347.2248 C0            1 RES     
   21504 C0        1067.2941 -1121.7359   347.1899 C0            1 RES     
   21505 C0        1066.4840 -1122.4938   348.2362 C0            1 RES     
   21506 H6        1070.1053 -1114.8816   343.5776 H6            1 RES     
   21507 H6        1070.9534 -1113.5961   344.3794 H6            1 RES     
   21508 H6        1072.0975 -1115.4618   345.8165 H6            1 RES     
   21509 H6        1073.8593 -1115.6675   344.2811 H6            1 RES     
   21510 H6        1073.1935 -1114.0299   344.0775 H6            1 RES     
   21511 H6        1072.8683 -1116.3909   342.1343 H6            1 RES     
   21512 H6        1074.0432 -1115.0699   342.0297 H6            1 RES     
   21513 H6        1071.0090 -1114.7917   341.6764 H6            1 RES     
   21514 H6        1072.2634 -1114.7234   340.4333 H6            1 RES     
   21515 H6        1071.8760 -1112.6486   342.6926 H6            1 RES     
   21516 H6        1071.4155 -1112.4856   340.9757 H6            1 RES     
   21517 H6        1074.2958 -1112.7902   342.0590 H6            1 RES     
   21518 H6        1073.8342 -1112.6460   340.3154 H6            1 RES     
   21519 H6        1072.8175 -1110.4024   340.7891 H6            1 RES     
   21520 H6        1074.5564 -1110.4594   341.2691 H6            1 RES     
   21521 H6        1073.2729 -1110.5647   342.5328 H6            1 RES     
   21522 H6        1072.5311 -1117.5823   344.5829 H6            1 RES     
   21523 H6        1071.1715 -1117.2364   343.4513 H6            1 RES     
   21524 H6        1071.0056 -1117.6085   346.4917 H6            1 RES     
   21525 H6        1069.5978 -1117.4004   345.3358 H6            1 RES     
   21526 H6        1070.2092 -1119.5286   344.2354 H6            1 RES     
   21527 H6        1071.6184 -1119.7140   345.3573 H6            1 RES     
   21528 H6        1070.0735 -1119.7101   347.3241 H6            1 RES     
   21529 H6        1068.6671 -1119.5129   346.2040 H6            1 RES     
   21530 H6        1069.2190 -1121.7222   345.1363 H6            1 RES     
   21531 H6        1070.6553 -1121.8762   346.2139 H6            1 RES     
   21532 H6        1069.2017 -1121.9341   348.2269 H6            1 RES     
   21533 H6        1068.8336 -1123.2530   347.0560 H6            1 RES     
   21534 H6        1066.8706 -1121.9481   346.1843 H6            1 RES     
   21535 H6        1067.1924 -1120.6515   347.4027 H6            1 RES     
   21536 H6        1065.4225 -1122.1714   348.1882 H6            1 RES     
   21537 H6        1066.5333 -1123.5868   348.0451 H6            1 RES     
   21538 H6        1066.8751 -1122.2814   349.2542 H6            1 RES     
   21539 C0        1072.6889 -1120.5196   356.7603 C0            1 RES     
   21540 C1        1071.8915 -1120.4482   355.4517 C1            1 RES     
   21541 C1        1071.1428 -1121.5511   355.2288 C1            1 RES     
   21542 S2        1070.2605 -1121.4463   353.8125 S2            1 RES     
   21543 C1        1070.8615 -1119.8889   353.4609 C1            1 RES     
   21544 C1        1071.7457 -1119.4732   354.4631 C1            1 RES     
   21545 C1        1071.3535 -1122.4532   356.3024 C1            1 RES     
   21546 C1        1072.2522 -1121.9270   357.1851 C1            1 RES     
   21547 C1        1072.5302 -1122.7912   358.2491 C1            1 RES     
   21548 C1        1071.8083 -1124.0065   358.1301 C1            1 RES     
   21549 S2        1070.8193 -1123.9617   356.7392 S2            1 RES     
   21550 H3        1072.2527 -1118.5184   354.4712 H3            1 RES     
   21551 H3        1073.2217 -1122.5458   359.0411 H3            1 RES     
   21552 N4        1070.8850 -1127.2806   359.7562 N4            1 RES     
   21553 C1        1070.8346 -1126.1561   358.9867 C1            1 RES     
   21554 C1        1071.8833 -1125.2074   359.0049 C1            1 RES     
   21555 C1        1072.9847 -1125.4856   359.8344 C1            1 RES     
   21556 N4        1074.0923 -1124.7078   359.9331 N4            1 RES     
   21557 S2        1075.0346 -1125.5544   360.9948 S2            1 RES     
   21558 N4        1074.1233 -1126.8834   361.3564 N4            1 RES     
   21559 C1        1073.0109 -1126.6789   360.6106 C1            1 RES     
   21560 C1        1071.9423 -1127.5640   360.5628 C1            1 RES     
   21561 H5        1069.9605 -1126.0023   358.3689 H5            1 RES     
   21562 C0        1072.0129 -1119.4133   357.6574 C0            1 RES     
   21563 C0        1072.1883 -1119.1516   359.1949 C0            1 RES     
   21564 C0        1070.9541 -1118.3342   359.7257 C0            1 RES     
   21565 C0        1070.8361 -1116.8091   359.4323 C0            1 RES     
   21566 C0        1070.6283 -1116.3350   357.9788 C0            1 RES     
   21567 C0        1069.4148 -1116.9406   357.2476 C0            1 RES     
   21568 C0        1068.0739 -1116.5879   357.9048 C0            1 RES     
   21569 C0        1066.9085 -1117.1666   357.1054 C0            1 RES     
   21570 C0        1073.4769 -1118.4074   359.6478 C0            1 RES     
   21571 C0        1074.7033 -1119.2880   359.8684 C0            1 RES     
   21572 C0        1075.9374 -1118.4259   360.1923 C0            1 RES     
   21573 C0        1077.2062 -1119.2758   360.3635 C0            1 RES     
   21574 C0        1078.4535 -1118.3787   360.4483 C0            1 RES     
   21575 C0        1079.7814 -1119.1581   360.4220 C0            1 RES     
   21576 C0        1080.0288 -1119.8597   359.0716 C0            1 RES     
   21577 C0        1081.4001 -1120.5263   359.0258 C0            1 RES     
   21578 H6        1072.1593 -1118.4612   357.1282 H6            1 RES     
   21579 H6        1070.9359 -1119.6811   357.5828 H6            1 RES     
   21580 H6        1072.1085 -1120.1285   359.7217 H6            1 RES     
   21581 H6        1070.9967 -1118.4035   360.8361 H6            1 RES     
   21582 H6        1070.0074 -1118.8407   359.4394 H6            1 RES     
   21583 H6        1071.7291 -1116.2869   359.8357 H6            1 RES     
   21584 H6        1069.9724 -1116.4386   360.0243 H6            1 RES     
   21585 H6        1071.5429 -1116.5138   357.3898 H6            1 RES     
   21586 H6        1070.5096 -1115.2295   357.9929 H6            1 RES     
   21587 H6        1069.5129 -1118.0397   357.1789 H6            1 RES     
   21588 H6        1069.4136 -1116.5391   356.2104 H6            1 RES     
   21589 H6        1068.0288 -1117.0003   358.9341 H6            1 RES     
   21590 H6        1067.9630 -1115.4829   357.9521 H6            1 RES     
   21591 H6        1066.9089 -1116.7611   356.0710 H6            1 RES     
   21592 H6        1065.9492 -1116.8936   357.5934 H6            1 RES     
   21593 H6        1066.9832 -1118.2743   357.0619 H6            1 RES     
   21594 H6        1073.3047 -1117.9506   360.6485 H6            1 RES     
   21595 H6        1073.6806 -1117.5805   358.9320 H6            1 RES     
   21596 H6        1074.5073 -1120.0126   360.6886 H6            1 RES     
   21597 H6        1074.8942 -1119.8445   358.9610 H6            1 RES     
   21598 H6        1076.0896 -1117.7317   359.3355 H6            1 RES     
   21599 H6        1075.7681 -1117.8215   361.1100 H6            1 RES     
   21600 H6        1077.1274 -1119.9233   361.2632 H6            1 RES     
   21601 H6        1077.2969 -1119.9369   359.4929 H6            1 RES     
   21602 H6        1078.4664 -1117.6646   359.5951 H6            1 RES     
   21603 H6        1078.3953 -1117.7863   361.3879 H6            1 RES     
   21604 H6        1079.8096 -1119.8943   361.2536 H6            1 RES     
   21605 H6        1080.6001 -1118.4220   360.5784 H6            1 RES     
   21606 H6        1079.9764 -1119.1119   358.2494 H6            1 RES     
   21607 H6        1079.2698 -1120.6439   358.8924 H6            1 RES     
   21608 H6        1081.5414 -1121.0119   358.0387 H6            1 RES     
   21609 H6        1082.2026 -1119.7712   359.1681 H6            1 RES     
   21610 H6        1081.4783 -1121.3010   359.8196 H6            1 RES     
   21611 C0        1074.2019 -1120.2613   356.3758 C0            1 RES     
   21612 C0        1075.4026 -1121.1859   356.7660 C0            1 RES     
   21613 C0        1076.7263 -1120.3496   356.8584 C0            1 RES     
   21614 C0        1077.4530 -1119.8499   355.5854 C0            1 RES     
   21615 C0        1076.7826 -1118.7326   354.7602 C0            1 RES     
   21616 C0        1076.4365 -1117.4427   355.5337 C0            1 RES     
   21617 C0        1077.6479 -1116.7612   356.1832 C0            1 RES     
   21618 C0        1077.2275 -1115.4690   356.8809 C0            1 RES     
   21619 C0        1075.6865 -1122.4170   355.8560 C0            1 RES     
   21620 C0        1074.6340 -1123.5117   355.9048 C0            1 RES     
   21621 C0        1075.0561 -1124.7662   355.1388 C0            1 RES     
   21622 C0        1073.9701 -1125.8392   355.2764 C0            1 RES     
   21623 C0        1074.3505 -1127.1226   354.5284 C0            1 RES     
   21624 C0        1073.3108 -1128.2431   354.7010 C0            1 RES     
   21625 C0        1071.9344 -1127.8868   354.1170 C0            1 RES     
   21626 C0        1070.9627 -1129.0542   354.2519 C0            1 RES     
   21627 H6        1074.2949 -1120.0777   355.2913 H6            1 RES     
   21628 H6        1074.3899 -1119.2747   356.8278 H6            1 RES     
   21629 H6        1075.2228 -1121.5620   357.7921 H6            1 RES     
   21630 H6        1077.4627 -1121.0109   357.3648 H6            1 RES     
   21631 H6        1076.5782 -1119.4739   357.5125 H6            1 RES     
   21632 H6        1077.6803 -1120.7078   354.9204 H6            1 RES     
   21633 H6        1078.4372 -1119.4558   355.9185 H6            1 RES     
   21634 H6        1075.8702 -1119.1172   354.2739 H6            1 RES     
   21635 H6        1077.4776 -1118.4655   353.9347 H6            1 RES     
   21636 H6        1075.6868 -1117.6461   356.3182 H6            1 RES     
   21637 H6        1075.9747 -1116.7349   354.8105 H6            1 RES     
   21638 H6        1078.1036 -1117.4306   356.9427 H6            1 RES     
   21639 H6        1078.4062 -1116.5242   355.4063 H6            1 RES     
   21640 H6        1076.7836 -1114.7611   356.1483 H6            1 RES     
   21641 H6        1078.1126 -1114.9892   357.3480 H6            1 RES     
   21642 H6        1076.4798 -1115.6839   357.6748 H6            1 RES     
   21643 H6        1076.6293 -1122.8850   356.2181 H6            1 RES     
   21644 H6        1075.8397 -1122.0959   354.8029 H6            1 RES     
   21645 H6        1074.4924 -1123.8062   356.9638 H6            1 RES     
   21646 H6        1073.7037 -1123.1302   355.4531 H6            1 RES     
   21647 H6        1075.2110 -1124.5162   354.0669 H6            1 RES     
   21648 H6        1076.0098 -1125.1566   355.5604 H6            1 RES     
   21649 H6        1073.8242 -1126.0778   356.3538 H6            1 RES     
   21650 H6        1073.0241 -1125.4276   354.8677 H6            1 RES     
   21651 H6        1074.4847 -1126.9020   353.4470 H6            1 RES     
   21652 H6        1075.3186 -1127.4939   354.9310 H6            1 RES     
   21653 H6        1073.2078 -1128.4889   355.7811 H6            1 RES     
   21654 H6        1073.6969 -1129.1439   354.1755 H6            1 RES     
   21655 H6        1072.0419 -1127.6310   353.0406 H6            1 RES     
   21656 H6        1071.4975 -1127.0185   354.6524 H6            1 RES     
   21657 H6        1069.9790 -1128.7693   353.8226 H6            1 RES     
   21658 H6        1071.3467 -1129.9412   353.7047 H6            1 RES     
   21659 H6        1070.8217 -1129.3162   355.3223 H6            1 RES     
   21660 C0        1072.2954 -1131.0069   364.7147 C0            1 RES     
   21661 C1        1072.1373 -1130.3698   363.3282 C1            1 RES     
   21662 C1        1071.8400 -1131.2694   362.3644 C1            1 RES     
   21663 S2        1071.6455 -1130.5556   360.8650 S2            1 RES     
   21664 C1        1071.9497 -1128.9943   361.4816 C1            1 RES     
   21665 C1        1072.1979 -1129.0567   362.8576 C1            1 RES     
   21666 C1        1071.7827 -1132.5544   362.9612 C1            1 RES     
   21667 C1        1072.0680 -1132.4639   364.2933 C1            1 RES     
   21668 C1        1072.0646 -1133.7092   364.9299 C1            1 RES     
   21669 C1        1071.7733 -1134.7554   364.0173 C1            1 RES     
   21670 S2        1071.4891 -1134.1091   362.4629 S2            1 RES     
   21671 H3        1072.4105 -1128.1974   363.4783 H3            1 RES     
   21672 H3        1072.2741 -1133.8327   365.9818 H3            1 RES     
   21673 N4        1071.0545 -1138.4311   363.5824 N4            1 RES     
   21674 C1        1071.0698 -1137.0816   363.3877 C1            1 RES     
   21675 C1        1071.7528 -1136.2200   364.2772 C1            1 RES     
   21676 C1        1072.4290 -1136.8181   365.3560 C1            1 RES     
   21677 N4        1073.1698 -1136.1439   366.2714 N4            1 RES     
   21678 S2        1073.7436 -1137.3574   367.2360 S2            1 RES     
   21679 N4        1073.1098 -1138.7266   366.5645 N4            1 RES     
   21680 C1        1072.4060 -1138.2324   365.5177 C1            1 RES     
   21681 C1        1071.7031 -1139.0244   364.6198 C1            1 RES     
   21682 H5        1070.5319 -1136.6851   362.5375 H5            1 RES     
   21683 C0        1071.0609 -1130.4416   365.5162 C0            1 RES     
   21684 C0        1070.4992 -1130.8995   366.9082 C0            1 RES     
   21685 C0        1069.0013 -1130.4389   367.0397 C0            1 RES     
   21686 C0        1068.6603 -1128.9491   367.3399 C0            1 RES     
   21687 C0        1068.9831 -1127.8738   366.2816 C0            1 RES     
   21688 C0        1068.3774 -1128.1109   364.8848 C0            1 RES     
   21689 C0        1066.8430 -1128.1242   364.8846 C0            1 RES     
   21690 C0        1066.3019 -1128.3053   363.4681 C0            1 RES     
   21691 C0        1071.2559 -1130.4113   368.1765 C0            1 RES     
   21692 C0        1072.4430 -1131.2683   368.6063 C0            1 RES     
   21693 C0        1073.1787 -1130.6179   369.7924 C0            1 RES     
   21694 C0        1074.4165 -1131.4241   370.2159 C0            1 RES     
   21695 C0        1075.2570 -1130.6342   371.2342 C0            1 RES     
   21696 C0        1076.6135 -1131.2868   371.5587 C0            1 RES     
   21697 C0        1077.5697 -1131.2962   370.3493 C0            1 RES     
   21698 C0        1078.9456 -1131.8385   370.7230 C0            1 RES     
   21699 H6        1071.1872 -1129.3501   365.5391 H6            1 RES     
   21700 H6        1070.2153 -1130.6712   364.8310 H6            1 RES     
   21701 H6        1070.4381 -1132.0106   366.9062 H6            1 RES     
   21702 H6        1068.5836 -1131.0018   367.9047 H6            1 RES     
   21703 H6        1068.4162 -1130.7827   366.1599 H6            1 RES     
   21704 H6        1069.1451 -1128.6455   368.2916 H6            1 RES     
   21705 H6        1067.5664 -1128.9062   367.5273 H6            1 RES     
   21706 H6        1070.0748 -1127.7461   366.1951 H6            1 RES     
   21707 H6        1068.6108 -1126.8972   366.6610 H6            1 RES     
   21708 H6        1068.7534 -1129.0575   364.4551 H6            1 RES     
   21709 H6        1068.7212 -1127.2839   364.2254 H6            1 RES     
   21710 H6        1066.4647 -1128.9583   365.5111 H6            1 RES     
   21711 H6        1066.4635 -1127.1628   365.2936 H6            1 RES     
   21712 H6        1066.6449 -1127.4759   362.8132 H6            1 RES     
   21713 H6        1065.1917 -1128.3044   363.4898 H6            1 RES     
   21714 H6        1066.6489 -1129.2716   363.0434 H6            1 RES     
   21715 H6        1070.5720 -1130.4605   369.0538 H6            1 RES     
   21716 H6        1071.5412 -1129.3457   368.0327 H6            1 RES     
   21717 H6        1072.0958 -1132.2897   368.8752 H6            1 RES     
   21718 H6        1073.1272 -1131.3498   367.7728 H6            1 RES     
   21719 H6        1073.5104 -1129.6080   369.4618 H6            1 RES     
   21720 H6        1072.4975 -1130.4978   370.6628 H6            1 RES     
   21721 H6        1074.1196 -1132.4101   370.6338 H6            1 RES     
   21722 H6        1075.0225 -1131.6178   369.3223 H6            1 RES     
   21723 H6        1075.4607 -1129.6113   370.8465 H6            1 RES     
   21724 H6        1074.6664 -1130.5322   372.1713 H6            1 RES     
   21725 H6        1076.4601 -1132.3186   371.9410 H6            1 RES     
   21726 H6        1077.0874 -1130.6826   372.3630 H6            1 RES     
   21727 H6        1077.6953 -1130.2588   369.9671 H6            1 RES     
   21728 H6        1077.1691 -1131.9316   369.5377 H6            1 RES     
   21729 H6        1079.6036 -1131.8218   369.8302 H6            1 RES     
   21730 H6        1079.4069 -1131.2113   371.5156 H6            1 RES     
   21731 H6        1078.8611 -1132.8864   371.0851 H6            1 RES     
   21732 C0        1073.7190 -1130.5682   365.2480 C0            1 RES     
   21733 C0        1074.8222 -1131.5416   365.7813 C0            1 RES     
   21734 C0        1075.7405 -1130.8076   366.8194 C0            1 RES     
   21735 C0        1076.7971 -1129.7698   366.3666 C0            1 RES     
   21736 C0        1076.2962 -1128.4157   365.8241 C0            1 RES     
   21737 C0        1075.3589 -1127.6232   366.7597 C0            1 RES     
   21738 C0        1075.9795 -1127.2817   368.1206 C0            1 RES     
   21739 C0        1075.0089 -1126.4546   368.9614 C0            1 RES     
   21740 C0        1075.7491 -1132.2214   364.7310 C0            1 RES     
   21741 C0        1075.0690 -1133.2435   363.8359 C0            1 RES     
   21742 C0        1076.0613 -1134.0060   362.9568 C0            1 RES     
   21743 C0        1075.3090 -1135.0497   362.1234 C0            1 RES     
   21744 C0        1076.2640 -1135.8471   361.2269 C0            1 RES     
   21745 C0        1075.5487 -1136.9480   360.4252 C0            1 RES     
   21746 C0        1074.5095 -1136.3976   359.4355 C0            1 RES     
   21747 C0        1073.8807 -1137.5217   358.6191 C0            1 RES     
   21748 H6        1074.2171 -1129.9120   364.5133 H6            1 RES     
   21749 H6        1073.4569 -1129.8886   366.0740 H6            1 RES     
   21750 H6        1074.3188 -1132.3451   366.3538 H6            1 RES     
   21751 H6        1076.3261 -1131.6093   367.3196 H6            1 RES     
   21752 H6        1075.1253 -1130.3259   367.5980 H6            1 RES     
   21753 H6        1077.4819 -1130.2287   365.6248 H6            1 RES     
   21754 H6        1077.4219 -1129.5465   367.2581 H6            1 RES     
   21755 H6        1075.7970 -1128.5595   364.8510 H6            1 RES     
   21756 H6        1077.1904 -1127.7884   365.6173 H6            1 RES     
   21757 H6        1074.4192 -1128.1765   366.9323 H6            1 RES     
   21758 H6        1075.0942 -1126.6757   366.2407 H6            1 RES     
   21759 H6        1076.2142 -1128.2116   368.6798 H6            1 RES     
   21760 H6        1076.9155 -1126.7017   367.9711 H6            1 RES     
   21761 H6        1074.7638 -1125.5022   368.4439 H6            1 RES     
   21762 H6        1075.4697 -1126.2178   369.9429 H6            1 RES     
   21763 H6        1074.0697 -1127.0223   369.1380 H6            1 RES     
   21764 H6        1076.5303 -1132.7808   365.2929 H6            1 RES     
   21765 H6        1076.2537 -1131.4553   364.1032 H6            1 RES     
   21766 H6        1074.5658 -1133.9882   364.4842 H6            1 RES     
   21767 H6        1074.3574 -1132.7203   363.1765 H6            1 RES     
   21768 H6        1076.5922 -1133.2949   362.2876 H6            1 RES     
   21769 H6        1076.8083 -1134.5230   363.6005 H6            1 RES     
   21770 H6        1074.7809 -1135.7530   362.8057 H6            1 RES     
   21771 H6        1074.5583 -1134.5195   361.5016 H6            1 RES     
   21772 H6        1076.7880 -1135.1584   360.5290 H6            1 RES     
   21773 H6        1077.0272 -1136.3381   361.8702 H6            1 RES     
   21774 H6        1075.0586 -1137.6580   361.1277 H6            1 RES     
   21775 H6        1076.3233 -1137.5047   359.8536 H6            1 RES     
   21776 H6        1074.9995 -1135.6803   358.7420 H6            1 RES     
   21777 H6        1073.6941 -1135.8755   359.9777 H6            1 RES     
   21778 H6        1073.1359 -1137.0960   357.9141 H6            1 RES     
   21779 H6        1074.6593 -1138.0564   358.0347 H6            1 RES     
   21780 H6        1073.3654 -1138.2426   359.2893 H6            1 RES     
   21781 C0        1071.0672 -1143.9636   366.7213 C0            1 RES     
   21782 C1        1071.3663 -1142.7721   365.8024 C1            1 RES     
   21783 C1        1071.7295 -1143.1452   364.5553 C1            1 RES     
   21784 S2        1072.0265 -1141.8353   363.5597 S2            1 RES     
   21785 C1        1071.6595 -1140.7150   364.7928 C1            1 RES     
   21786 C1        1071.3069 -1141.3872   365.9688 C1            1 RES     
   21787 C1        1071.7315 -1144.5622   364.5003 C1            1 RES     
   21788 C1        1071.3937 -1145.0773   365.7188 C1            1 RES     
   21789 C1        1071.4165 -1146.4756   365.7366 C1            1 RES     
   21790 C1        1071.7980 -1147.0024   364.4760 C1            1 RES     
   21791 S2        1072.0561 -1145.7298   363.3676 S2            1 RES     
   21792 H3        1071.0249 -1140.8968   366.8901 H3            1 RES     
   21793 H3        1071.1823 -1147.0567   366.6159 H3            1 RES     
   21794 N4        1072.2284 -1150.0996   362.3690 N4            1 RES     
   21795 C1        1072.0037 -1148.8079   362.7437 C1            1 RES     
   21796 C1        1072.0180 -1148.4263   364.1055 C1            1 RES     
   21797 C1        1072.2929 -1149.4319   365.0498 C1            1 RES     
   21798 N4        1072.3912 -1149.2279   366.3878 N4            1 RES     
   21799 S2        1072.7714 -1150.7329   366.9556 S2            1 RES     
   21800 N4        1072.8282 -1151.6646   365.5932 N4            1 RES     
   21801 C1        1072.5402 -1150.7666   364.6204 C1            1 RES     
   21802 C1        1072.4956 -1151.0828   363.2693 C1            1 RES     
   21803 H5        1071.8005 -1148.0821   361.9682 H5            1 RES     
   21804 C0        1069.5141 -1143.8501   366.9678 C0            1 RES     
   21805 C0        1068.5412 -1144.9007   367.6103 C0            1 RES     
   21806 C0        1067.0672 -1144.5837   367.1629 C0            1 RES     
   21807 C0        1066.2877 -1143.3989   367.8068 C0            1 RES     
   21808 C0        1066.7635 -1141.9542   367.5479 C0            1 RES     
   21809 C0        1066.8837 -1141.5478   366.0665 C0            1 RES     
   21810 C0        1065.5465 -1141.5946   365.3154 C0            1 RES     
   21811 C0        1065.7181 -1141.1278   363.8716 C0            1 RES     
   21812 C0        1068.5477 -1145.0217   369.1610 C0            1 RES     
   21813 C0        1069.6060 -1145.9531   369.7448 C0            1 RES     
   21814 C0        1069.5907 -1145.8927   371.2834 C0            1 RES     
   21815 C0        1070.6839 -1146.7748   371.9065 C0            1 RES     
   21816 C0        1070.7980 -1146.5117   373.4182 C0            1 RES     
   21817 C0        1072.0006 -1147.2095   374.0805 C0            1 RES     
   21818 C0        1073.3517 -1146.6490   373.5930 C0            1 RES     
   21819 C0        1074.5239 -1147.2702   374.3459 C0            1 RES     
   21820 H6        1069.3552 -1142.8844   367.4679 H6            1 RES     
   21821 H6        1069.1208 -1143.7643   365.9309 H6            1 RES     
   21822 H6        1068.7527 -1145.8919   367.1508 H6            1 RES     
   21823 H6        1066.4688 -1145.4863   367.4215 H6            1 RES     
   21824 H6        1067.0113 -1144.5057   366.0559 H6            1 RES     
   21825 H6        1066.2351 -1143.5475   368.9059 H6            1 RES     
   21826 H6        1065.2423 -1143.4703   367.4386 H6            1 RES     
   21827 H6        1067.7236 -1141.7763   368.0599 H6            1 RES     
   21828 H6        1066.0450 -1141.2635   368.0409 H6            1 RES     
   21829 H6        1067.6196 -1142.1890   365.5474 H6            1 RES     
   21830 H6        1067.2674 -1140.5044   366.0352 H6            1 RES     
   21831 H6        1065.1482 -1142.6303   365.3016 H6            1 RES     
   21832 H6        1064.8127 -1140.9310   365.8223 H6            1 RES     
   21833 H6        1066.0987 -1140.0844   363.8442 H6            1 RES     
   21834 H6        1064.7388 -1141.1623   363.3494 H6            1 RES     
   21835 H6        1066.4312 -1141.7895   363.3348 H6            1 RES     
   21836 H6        1067.5894 -1145.4779   369.4979 H6            1 RES     
   21837 H6        1068.6047 -1144.0001   369.5975 H6            1 RES     
   21838 H6        1069.4313 -1146.9933   369.3933 H6            1 RES     
   21839 H6        1070.5771 -1145.6332   369.3922 H6            1 RES     
   21840 H6        1069.7808 -1144.8352   371.5745 H6            1 RES     
   21841 H6        1068.5974 -1146.1948   371.6814 H6            1 RES     
   21842 H6        1070.4814 -1147.8496   371.7100 H6            1 RES     
   21843 H6        1071.6387 -1146.5296   371.4254 H6            1 RES     
   21844 H6        1070.8976 -1145.4197   373.6073 H6            1 RES     
   21845 H6        1069.8600 -1146.8580   373.9055 H6            1 RES     
   21846 H6        1071.9495 -1148.3058   373.9082 H6            1 RES     
   21847 H6        1071.9295 -1147.0235   375.1745 H6            1 RES     
   21848 H6        1073.3770 -1145.5484   373.7540 H6            1 RES     
   21849 H6        1073.4972 -1146.8578   372.5168 H6            1 RES     
   21850 H6        1075.4738 -1146.8366   373.9718 H6            1 RES     
   21851 H6        1074.4413 -1147.0588   375.4335 H6            1 RES     
   21852 H6        1074.5455 -1148.3702   374.1850 H6            1 RES     
   21853 C0        1071.9802 -1143.7811   368.0006 C0            1 RES     
   21854 C0        1072.9490 -1144.8650   368.5799 C0            1 RES     
   21855 C0        1073.1361 -1144.6590   370.1235 C0            1 RES     
   21856 C0        1074.0047 -1143.5048   370.6818 C0            1 RES     
   21857 C0        1073.4756 -1142.0635   370.5346 C0            1 RES     
   21858 C0        1072.0712 -1141.8014   371.1183 C0            1 RES     
   21859 C0        1071.9543 -1142.0981   372.6190 C0            1 RES     
   21860 C0        1070.5528 -1141.7630   373.1255 C0            1 RES     
   21861 C0        1074.3662 -1144.9750   367.9447 C0            1 RES     
   21862 C0        1074.3951 -1145.4971   366.5181 C0            1 RES     
   21863 C0        1075.8164 -1145.7568   366.0170 C0            1 RES     
   21864 C0        1075.7611 -1146.3277   364.5954 C0            1 RES     
   21865 C0        1077.1655 -1146.6115   364.0491 C0            1 RES     
   21866 C0        1077.1426 -1147.2469   362.6484 C0            1 RES     
   21867 C0        1076.5242 -1146.3323   361.5790 C0            1 RES     
   21868 C0        1076.5886 -1146.9798   360.1999 C0            1 RES     
   21869 H6        1072.5713 -1142.8524   367.9192 H6            1 RES     
   21870 H6        1071.2390 -1143.5547   368.7830 H6            1 RES     
   21871 H6        1072.4571 -1145.8517   368.4748 H6            1 RES     
   21872 H6        1073.6259 -1145.5867   370.4915 H6            1 RES     
   21873 H6        1072.1536 -1144.5956   370.6208 H6            1 RES     
   21874 H6        1075.0270 -1143.5629   370.2559 H6            1 RES     
   21875 H6        1074.1190 -1143.6945   371.7707 H6            1 RES     
   21876 H6        1073.4868 -1141.7631   369.4732 H6            1 RES     
   21877 H6        1074.1955 -1141.3903   371.0487 H6            1 RES     
   21878 H6        1071.3084 -1142.3942   370.5837 H6            1 RES     
   21879 H6        1071.8350 -1140.7279   370.9477 H6            1 RES     
   21880 H6        1072.1430 -1143.1748   372.8134 H6            1 RES     
   21881 H6        1072.6977 -1141.4920   373.1801 H6            1 RES     
   21882 H6        1070.3321 -1140.6855   372.9675 H6            1 RES     
   21883 H6        1070.4825 -1141.9853   374.2107 H6            1 RES     
   21884 H6        1069.7922 -1142.3705   372.5888 H6            1 RES     
   21885 H6        1074.9431 -1145.7100   368.5495 H6            1 RES     
   21886 H6        1074.8915 -1143.9965   367.9927 H6            1 RES     
   21887 H6        1073.8572 -1146.4658   366.4951 H6            1 RES     
   21888 H6        1073.9290 -1144.7486   365.8566 H6            1 RES     
   21889 H6        1076.3953 -1144.8080   366.0241 H6            1 RES     
   21890 H6        1076.3186 -1146.4918   366.6857 H6            1 RES     
   21891 H6        1075.1772 -1147.2753   364.6029 H6            1 RES     
   21892 H6        1075.2432 -1145.5909   363.9472 H6            1 RES     
   21893 H6        1077.7559 -1145.6698   364.0217 H6            1 RES     
   21894 H6        1077.6759 -1147.3228   364.7353 H6            1 RES     
   21895 H6        1076.5850 -1148.2087   362.6876 H6            1 RES     
   21896 H6        1078.1943 -1147.4670   362.3619 H6            1 RES     
   21897 H6        1077.0762 -1145.3680   361.5496 H6            1 RES     
   21898 H6        1075.4575 -1146.1306   361.8093 H6            1 RES     
   21899 H6        1076.1360 -1146.2983   359.4489 H6            1 RES     
   21900 H6        1077.6440 -1147.1745   359.9139 H6            1 RES     
   21901 H6        1076.0252 -1147.9373   360.1973 H6            1 RES     
   21902 C0        1072.2218 -1156.4516   362.7052 C0            1 RES     
   21903 C1        1072.5901 -1154.9669   362.5890 C1            1 RES     
   21904 C1        1073.5256 -1154.7273   361.6435 C1            1 RES     
   21905 S2        1073.8964 -1153.1023   361.5117 S2            1 RES     
   21906 C1        1072.7859 -1152.6694   362.7323 C1            1 RES     
   21907 C1        1072.1384 -1153.8086   363.2244 C1            1 RES     
   21908 C1        1073.8874 -1155.9658   361.0553 C1            1 RES     
   21909 C1        1073.1975 -1156.9837   361.6483 C1            1 RES     
   21910 C1        1073.5421 -1158.2380   361.1345 C1            1 RES     
   21911 C1        1074.5359 -1158.1290   360.1281 C1            1 RES     
   21912 S2        1074.9294 -1156.4872   359.8746 S2            1 RES     
   21913 H3        1071.3843 -1153.7944   363.9989 H3            1 RES     
   21914 H3        1073.1023 -1159.1591   361.4865 H3            1 RES     
   21915 N4        1076.5426 -1159.9279   357.4910 N4            1 RES     
   21916 C1        1075.8801 -1158.9508   358.1735 C1            1 RES     
   21917 C1        1075.2238 -1159.2260   359.3957 C1            1 RES     
   21918 C1        1075.3020 -1160.5434   359.8825 C1            1 RES     
   21919 N4        1074.7714 -1160.9643   361.0584 N4            1 RES     
   21920 S2        1075.2202 -1162.5542   361.1086 S2            1 RES     
   21921 N4        1076.0697 -1162.7676   359.7085 N4            1 RES     
   21922 C1        1076.0177 -1161.5337   359.1516 C1            1 RES     
   21923 C1        1076.6275 -1161.2056   357.9482 C1            1 RES     
   21924 H5        1075.8593 -1157.9577   357.7462 H5            1 RES     
   21925 C0        1070.7333 -1156.4973   362.1875 C0            1 RES     
   21926 C0        1069.8603 -1157.7468   361.8137 C0            1 RES     
   21927 C0        1068.6872 -1157.2955   360.8686 C0            1 RES     
   21928 C0        1067.4512 -1156.5480   361.4514 C0            1 RES     
   21929 C0        1067.6334 -1155.1320   362.0363 C0            1 RES     
   21930 C0        1068.2707 -1154.0970   361.0893 C0            1 RES     
   21931 C0        1067.4325 -1153.8296   359.8322 C0            1 RES     
   21932 C0        1068.0845 -1152.7566   358.9629 C0            1 RES     
   21933 C0        1069.2364 -1158.5557   362.9866 C0            1 RES     
   21934 C0        1070.1345 -1159.6260   363.6000 C0            1 RES     
   21935 C0        1069.4535 -1160.2682   364.8227 C0            1 RES     
   21936 C0        1070.3538 -1161.3116   365.5029 C0            1 RES     
   21937 C0        1069.7492 -1161.7580   366.8454 C0            1 RES     
   21938 C0        1070.6844 -1162.6521   367.6805 C0            1 RES     
   21939 C0        1071.9386 -1161.9012   368.1708 C0            1 RES     
   21940 C0        1072.7907 -1162.7687   369.0917 C0            1 RES     
   21941 H6        1070.1527 -1155.8660   362.8746 H6            1 RES     
   21942 H6        1070.8096 -1155.9609   361.2160 H6            1 RES     
   21943 H6        1070.4758 -1158.4179   361.1741 H6            1 RES     
   21944 H6        1068.2692 -1158.2308   360.4327 H6            1 RES     
   21945 H6        1069.0898 -1156.7266   360.0031 H6            1 RES     
   21946 H6        1066.9739 -1157.1787   362.2306 H6            1 RES     
   21947 H6        1066.7111 -1156.4691   360.6269 H6            1 RES     
   21948 H6        1068.2125 -1155.1829   362.9730 H6            1 RES     
   21949 H6        1066.6322 -1154.7554   362.3399 H6            1 RES     
   21950 H6        1069.2865 -1154.4171   360.7927 H6            1 RES     
   21951 H6        1068.3713 -1153.1437   361.6533 H6            1 RES     
   21952 H6        1067.3366 -1154.7559   359.2286 H6            1 RES     
   21953 H6        1066.4185 -1153.4839   360.1289 H6            1 RES     
   21954 H6        1068.1806 -1151.8052   359.5286 H6            1 RES     
   21955 H6        1067.4588 -1152.5735   358.0641 H6            1 RES     
   21956 H6        1069.0927 -1153.0875   358.6335 H6            1 RES     
   21957 H6        1068.3647 -1159.1366   362.6093 H6            1 RES     
   21958 H6        1068.8581 -1157.8409   363.7505 H6            1 RES     
   21959 H6        1070.3784 -1160.3985   362.8385 H6            1 RES     
   21960 H6        1071.0566 -1159.1592   363.9186 H6            1 RES     
   21961 H6        1069.2447 -1159.4527   365.5509 H6            1 RES     
   21962 H6        1068.4887 -1160.7403   364.5357 H6            1 RES     
   21963 H6        1070.5158 -1162.1857   364.8361 H6            1 RES     
   21964 H6        1071.3339 -1160.8536   365.6840 H6            1 RES     
   21965 H6        1069.4963 -1160.8675   367.4629 H6            1 RES     
   21966 H6        1068.8051 -1162.3085   366.6383 H6            1 RES     
   21967 H6        1070.9735 -1163.5529   367.0980 H6            1 RES     
   21968 H6        1070.1136 -1162.9827   368.5758 H6            1 RES     
   21969 H6        1071.6308 -1160.9920   368.7336 H6            1 RES     
   21970 H6        1072.5723 -1161.5973   367.3169 H6            1 RES     
   21971 H6        1073.6763 -1162.1912   369.4270 H6            1 RES     
   21972 H6        1072.2065 -1163.0739   369.9861 H6            1 RES     
   21973 H6        1073.1393 -1163.6762   368.5520 H6            1 RES     
   21974 C0        1072.4330 -1156.8465   364.2228 C0            1 RES     
   21975 C0        1073.2910 -1158.0527   364.7304 C0            1 RES     
   21976 C0        1072.7502 -1158.5628   366.1114 C0            1 RES     
   21977 C0        1072.9977 -1157.7663   367.4163 C0            1 RES     
   21978 C0        1072.2554 -1156.4268   367.5991 C0            1 RES     
   21979 C0        1070.7183 -1156.4891   367.4754 C0            1 RES     
   21980 C0        1070.0496 -1157.4349   368.4814 C0            1 RES     
   21981 C0        1068.5305 -1157.3972   368.3267 C0            1 RES     
   21982 C0        1074.8250 -1157.8312   364.8785 C0            1 RES     
   21983 C0        1075.5800 -1157.6510   363.5723 C0            1 RES     
   21984 C0        1077.0962 -1157.6235   363.7699 C0            1 RES     
   21985 C0        1077.7872 -1157.4909   362.4080 C0            1 RES     
   21986 C0        1079.3135 -1157.4649   362.5527 C0            1 RES     
   21987 C0        1080.0392 -1157.3985   361.1980 C0            1 RES     
   21988 C0        1079.7355 -1156.1136   360.4111 C0            1 RES     
   21989 C0        1080.5312 -1156.0659   359.1110 C0            1 RES     
   21990 H6        1072.7632 -1155.9681   364.8041 H6            1 RES     
   21991 H6        1071.3995 -1157.0153   364.5635 H6            1 RES     
   21992 H6        1073.1405 -1158.8962   364.0285 H6            1 RES     
   21993 H6        1073.2424 -1159.5452   366.2806 H6            1 RES     
   21994 H6        1071.6656 -1158.7536   366.0484 H6            1 RES     
   21995 H6        1074.0855 -1157.6022   367.5567 H6            1 RES     
   21996 H6        1072.6803 -1158.4253   368.2529 H6            1 RES     
   21997 H6        1072.6444 -1155.6787   366.8878 H6            1 RES     
   21998 H6        1072.5060 -1156.0426   368.6117 H6            1 RES     
   21999 H6        1070.4198 -1156.7933   366.4569 H6            1 RES     
   22000 H6        1070.3292 -1155.4601   367.6405 H6            1 RES     
   22001 H6        1070.3878 -1158.4784   368.3107 H6            1 RES     
   22002 H6        1070.3168 -1157.1312   369.5165 H6            1 RES     
   22003 H6        1068.1486 -1156.3700   368.5107 H6            1 RES     
   22004 H6        1068.0612 -1158.0876   369.0580 H6            1 RES     
   22005 H6        1068.2383 -1157.7135   367.3019 H6            1 RES     
   22006 H6        1075.2470 -1158.7469   365.3500 H6            1 RES     
   22007 H6        1075.0310 -1156.9685   365.5485 H6            1 RES     
   22008 H6        1075.3501 -1158.5166   362.9195 H6            1 RES     
   22009 H6        1075.2758 -1156.6952   363.1153 H6            1 RES     
   22010 H6        1077.3734 -1156.7675   364.4226 H6            1 RES     
   22011 H6        1077.4257 -1158.5698   364.2553 H6            1 RES     
   22012 H6        1077.4991 -1158.3526   361.7649 H6            1 RES     
   22013 H6        1077.4348 -1156.5527   361.9317 H6            1 RES     
   22014 H6        1079.6171 -1156.5994   363.1810 H6            1 RES     
   22015 H6        1079.6371 -1158.3977   363.0649 H6            1 RES     
   22016 H6        1079.7640 -1158.2866   360.5870 H6            1 RES     
   22017 H6        1081.1320 -1157.4413   361.3996 H6            1 RES     
   22018 H6        1080.0010 -1155.2279   361.0279 H6            1 RES     
   22019 H6        1078.6579 -1156.0623   360.1510 H6            1 RES     
   22020 H6        1080.2926 -1155.1290   358.5646 H6            1 RES     
   22021 H6        1081.6210 -1156.0860   359.3246 H6            1 RES     
   22022 H6        1080.2677 -1156.9313   358.4662 H6            1 RES     
   22023 C0        1077.9039 -1165.7437   355.3037 C0            1 RES     
   22024 C1        1077.9220 -1164.3589   355.9637 C1            1 RES     
   22025 C1        1079.0838 -1163.6964   355.7690 C1            1 RES     
   22026 S2        1079.0775 -1162.1795   356.4722 S2            1 RES     
   22027 C1        1077.4862 -1162.3708   357.0567 C1            1 RES     
   22028 C1        1076.9824 -1163.6238   356.6889 C1            1 RES     
   22029 C1        1079.9440 -1164.5265   355.0063 C1            1 RES     
   22030 C1        1079.3314 -1165.7180   354.7438 C1            1 RES     
   22031 C1        1080.1488 -1166.5962   354.0250 C1            1 RES     
   22032 C1        1081.4184 -1166.0212   353.7606 C1            1 RES     
   22033 S2        1081.4795 -1164.4337   354.3856 S2            1 RES     
   22034 H3        1075.9913 -1163.9786   356.9354 H3            1 RES     
   22035 H3        1079.8341 -1167.5866   353.7323 H3            1 RES     
   22036 N4        1084.7186 -1166.3868   351.9741 N4            1 RES     
   22037 C1        1083.6179 -1165.8394   352.5640 C1            1 RES     
   22038 C1        1082.5910 -1166.6524   353.0976 C1            1 RES     
   22039 C1        1082.7658 -1168.0453   353.0098 C1            1 RES     
   22040 N4        1081.9031 -1168.9645   353.5121 N4            1 RES     
   22041 S2        1082.6518 -1170.3946   353.1568 S2            1 RES     
   22042 N4        1084.0391 -1169.9323   352.3893 N4            1 RES     
   22043 C1        1083.9368 -1168.5814   352.4027 C1            1 RES     
   22044 C1        1084.9024 -1167.7309   351.8816 C1            1 RES     
   22045 H5        1083.5451 -1164.7611   352.6014 H5            1 RES     
   22046 C0        1076.8341 -1165.5844   354.1565 C0            1 RES     
   22047 C0        1076.5271 -1166.5493   352.9576 C0            1 RES     
   22048 C0        1075.7962 -1165.7463   351.8199 C0            1 RES     
   22049 C0        1074.2913 -1165.3716   351.9644 C0            1 RES     
   22050 C0        1073.8656 -1164.3694   353.0575 C0            1 RES     
   22051 C0        1074.5784 -1163.0038   353.0233 C0            1 RES     
   22052 C0        1074.3162 -1162.2161   351.7329 C0            1 RES     
   22053 C0        1074.9998 -1160.8514   351.7814 C0            1 RES     
   22054 C0        1075.6763 -1167.8152   353.2626 C0            1 RES     
   22055 C0        1076.4549 -1169.0264   353.7678 C0            1 RES     
   22056 C0        1075.4935 -1170.1674   354.1484 C0            1 RES     
   22057 C0        1076.2392 -1171.3847   354.7174 C0            1 RES     
   22058 C0        1075.2471 -1172.4037   355.3046 C0            1 RES     
   22059 C0        1075.9222 -1173.5572   356.0696 C0            1 RES     
   22060 C0        1076.6312 -1173.0807   357.3531 C0            1 RES     
   22061 C0        1077.1909 -1174.2512   358.1553 C0            1 RES     
   22062 H6        1075.8851 -1165.3454   354.6567 H6            1 RES     
   22063 H6        1077.1857 -1164.6651   353.6383 H6            1 RES     
   22064 H6        1077.4959 -1166.8445   352.4964 H6            1 RES     
   22065 H6        1075.8384 -1166.3928   350.9145 H6            1 RES     
   22066 H6        1076.3801 -1164.8386   351.5560 H6            1 RES     
   22067 H6        1073.6934 -1166.2973   352.1007 H6            1 RES     
   22068 H6        1073.9760 -1164.9453   350.9885 H6            1 RES     
   22069 H6        1073.9859 -1164.8252   354.0541 H6            1 RES     
   22070 H6        1072.7725 -1164.1938   352.9542 H6            1 RES     
   22071 H6        1075.6678 -1163.1319   353.1610 H6            1 RES     
   22072 H6        1074.2002 -1162.4066   353.8819 H6            1 RES     
   22073 H6        1074.7088 -1162.7712   350.8559 H6            1 RES     
   22074 H6        1073.2222 -1162.0651   351.6060 H6            1 RES     
   22075 H6        1074.6175 -1160.2567   352.6385 H6            1 RES     
   22076 H6        1074.7913 -1160.2960   350.8428 H6            1 RES     
   22077 H6        1076.0992 -1160.9744   351.8854 H6            1 RES     
   22078 H6        1075.2130 -1168.1825   352.3191 H6            1 RES     
   22079 H6        1074.8516 -1167.5319   353.9534 H6            1 RES     
   22080 H6        1077.1749 -1169.3653   352.9913 H6            1 RES     
   22081 H6        1077.0142 -1168.7332   354.6458 H6            1 RES     
   22082 H6        1074.8081 -1169.7744   354.9324 H6            1 RES     
   22083 H6        1074.8846 -1170.4806   353.2724 H6            1 RES     
   22084 H6        1076.8716 -1171.8589   353.9362 H6            1 RES     
   22085 H6        1076.9097 -1171.0359   355.5124 H6            1 RES     
   22086 H6        1074.5524 -1171.8948   356.0092 H6            1 RES     
   22087 H6        1074.6411 -1172.8225   354.4712 H6            1 RES     
   22088 H6        1076.6362 -1174.0904   355.4061 H6            1 RES     
   22089 H6        1075.1220 -1174.2698   356.3670 H6            1 RES     
   22090 H6        1075.9073 -1172.5316   357.9953 H6            1 RES     
   22091 H6        1077.4752 -1172.4092   357.1084 H6            1 RES     
   22092 H6        1077.6850 -1173.8677   359.0713 H6            1 RES     
   22093 H6        1076.3734 -1174.9411   358.4553 H6            1 RES     
   22094 H6        1077.9403 -1174.8083   357.5517 H6            1 RES     
   22095 C0        1077.5379 -1166.7772   356.4446 C0            1 RES     
   22096 C0        1078.3587 -1168.0627   356.7949 C0            1 RES     
   22097 C0        1077.4212 -1169.1543   357.4188 C0            1 RES     
   22098 C0        1076.8941 -1169.0286   358.8696 C0            1 RES     
   22099 C0        1075.8495 -1167.9338   359.1683 C0            1 RES     
   22100 C0        1074.5740 -1167.9685   358.3002 C0            1 RES     
   22101 C0        1073.7875 -1169.2820   358.3999 C0            1 RES     
   22102 C0        1072.5171 -1169.2131   357.5547 C0            1 RES     
   22103 C0        1079.5834 -1167.8972   357.7420 C0            1 RES     
   22104 C0        1080.7547 -1167.1286   357.1538 C0            1 RES     
   22105 C0        1081.9888 -1167.1588   358.0563 C0            1 RES     
   22106 C0        1083.1392 -1166.4090   357.3749 C0            1 RES     
   22107 C0        1084.4051 -1166.4163   358.2403 C0            1 RES     
   22108 C0        1085.5985 -1165.7280   357.5560 C0            1 RES     
   22109 C0        1085.3618 -1164.2335   357.2863 C0            1 RES     
   22110 C0        1086.5976 -1163.5848   356.6717 C0            1 RES     
   22111 H6        1077.3708 -1166.2494   357.3996 H6            1 RES     
   22112 H6        1076.5305 -1167.1054   356.1444 H6            1 RES     
   22113 H6        1078.7257 -1168.5009   355.8461 H6            1 RES     
   22114 H6        1078.0128 -1170.0955   357.4121 H6            1 RES     
   22115 H6        1076.5457 -1169.3207   356.7687 H6            1 RES     
   22116 H6        1077.7458 -1168.9209   359.5716 H6            1 RES     
   22117 H6        1076.4183 -1170.0017   359.1175 H6            1 RES     
   22118 H6        1076.3136 -1166.9363   359.0877 H6            1 RES     
   22119 H6        1075.5473 -1168.0434   360.2325 H6            1 RES     
   22120 H6        1074.8179 -1167.7861   357.2390 H6            1 RES     
   22121 H6        1073.9195 -1167.1347   358.6372 H6            1 RES     
   22122 H6        1074.4035 -1170.1276   358.0282 H6            1 RES     
   22123 H6        1073.5093 -1169.4732   359.4586 H6            1 RES     
   22124 H6        1071.8612 -1168.3892   357.9093 H6            1 RES     
   22125 H6        1071.9607 -1170.1702   357.6342 H6            1 RES     
   22126 H6        1072.7720 -1169.0384   356.4869 H6            1 RES     
   22127 H6        1079.9695 -1168.9172   357.9640 H6            1 RES     
   22128 H6        1079.2738 -1167.4263   358.7001 H6            1 RES     
   22129 H6        1081.0367 -1167.6104   356.1965 H6            1 RES     
   22130 H6        1080.4557 -1166.0767   357.0158 H6            1 RES     
   22131 H6        1081.7505 -1166.6844   359.0329 H6            1 RES     
   22132 H6        1082.2956 -1168.2145   358.2326 H6            1 RES     
   22133 H6        1083.3654 -1166.8930   356.3984 H6            1 RES     
   22134 H6        1082.8105 -1165.3651   357.1916 H6            1 RES     
   22135 H6        1084.1979 -1165.9219   359.2143 H6            1 RES     
   22136 H6        1084.6920 -1167.4723   358.4399 H6            1 RES     
   22137 H6        1085.8285 -1166.2499   356.6008 H6            1 RES     
   22138 H6        1086.4778 -1165.8323   358.2288 H6            1 RES     
   22139 H6        1085.1214 -1163.7166   358.2405 H6            1 RES     
   22140 H6        1084.5186 -1164.0947   356.5783 H6            1 RES     
   22141 H6        1086.3984 -1162.5079   356.4882 H6            1 RES     
   22142 H6        1087.4637 -1163.6745   357.3611 H6            1 RES     
   22143 H6        1086.8468 -1164.0709   355.7043 H6            1 RES     
   22144 C0        1088.2189 -1170.5522   348.6788 C0            1 RES     
   22145 C1        1087.6254 -1169.6155   349.7389 C1            1 RES     
   22146 C1        1088.5655 -1168.9102   350.4062 C1            1 RES     
   22147 S2        1087.9010 -1167.8758   351.5392 S2            1 RES     
   22148 C1        1086.3081 -1168.3471   351.1506 C1            1 RES     
   22149 C1        1086.3218 -1169.3095   350.1344 C1            1 RES     
   22150 C1        1089.8382 -1169.2858   349.9061 C1            1 RES     
   22151 C1        1089.6976 -1170.2435   348.9433 C1            1 RES     
   22152 C1        1090.9257 -1170.6828   348.4383 C1            1 RES     
   22153 C1        1092.0104 -1170.0216   349.0695 C1            1 RES     
   22154 S2        1091.4212 -1168.8874   350.2013 S2            1 RES     
   22155 H3        1085.4358 -1169.7599   349.7093 H3            1 RES     
   22156 H3        1091.0104 -1171.4407   347.6741 H3            1 RES     
   22157 N4        1095.7391 -1169.4644   349.1313 N4            1 RES     
   22158 C1        1094.3968 -1169.2682   349.2701 C1            1 RES     
   22159 C1        1093.4664 -1170.2578   348.8762 C1            1 RES     
   22160 C1        1093.9875 -1171.4561   348.3555 C1            1 RES     
   22161 N4        1093.2390 -1172.5224   347.9760 N4            1 RES     
   22162 S2        1094.3838 -1173.6198   347.5101 S2            1 RES     
   22163 N4        1095.8118 -1172.8289   347.7604 N4            1 RES     
   22164 C1        1095.3957 -1171.6328   348.2418 C1            1 RES     
   22165 C1        1096.2584 -1170.6167   348.6301 C1            1 RES     
   22166 H5        1094.0611 -1168.3253   349.6795 H5            1 RES     
   22167 C0        1087.7335 -1169.9158   347.3204 C0            1 RES     
   22168 C0        1088.2036 -1170.2410   345.8589 C0            1 RES     
   22169 C0        1087.8572 -1169.0273   344.9207 C0            1 RES     
   22170 C0        1086.3920 -1168.7929   344.4470 C0            1 RES     
   22171 C0        1085.3178 -1168.4032   345.4838 C0            1 RES     
   22172 C0        1085.6305 -1167.1539   346.3296 C0            1 RES     
   22173 C0        1085.7621 -1165.8740   345.4936 C0            1 RES     
   22174 C0        1086.0144 -1164.6636   346.3898 C0            1 RES     
   22175 C0        1087.6317 -1171.5271   345.1968 C0            1 RES     
   22176 C0        1088.3853 -1172.8177   345.5047 C0            1 RES     
   22177 C0        1087.6551 -1174.0291   344.8963 C0            1 RES     
   22178 C0        1088.3543 -1175.3547   345.2359 C0            1 RES     
   22179 C0        1087.4804 -1176.5515   344.8217 C0            1 RES     
   22180 C0        1088.0196 -1177.9105   345.3053 C0            1 RES     
   22181 C0        1087.9809 -1178.0498   346.8403 C0            1 RES     
   22182 C0        1088.4075 -1179.4434   347.2905 C0            1 RES     
   22183 H6        1086.6352 -1169.9506   347.3435 H6            1 RES     
   22184 H6        1088.0421 -1168.8537   347.4390 H6            1 RES     
   22185 H6        1089.3159 -1170.2735   345.8542 H6            1 RES     
   22186 H6        1088.4321 -1169.1932   343.9818 H6            1 RES     
   22187 H6        1088.2637 -1168.0852   345.3473 H6            1 RES     
   22188 H6        1086.0318 -1169.6935   343.9066 H6            1 RES     
   22189 H6        1086.4296 -1167.9786   343.6925 H6            1 RES     
   22190 H6        1085.1082 -1169.2576   346.1483 H6            1 RES     
   22191 H6        1084.3650 -1168.2249   344.9391 H6            1 RES     
   22192 H6        1086.5543 -1167.3056   346.9177 H6            1 RES     
   22193 H6        1084.7936 -1167.0183   347.0495 H6            1 RES     
   22194 H6        1086.6094 -1165.9634   344.7825 H6            1 RES     
   22195 H6        1084.8243 -1165.7070   344.9205 H6            1 RES     
   22196 H6        1085.1752 -1164.5296   347.1055 H6            1 RES     
   22197 H6        1086.0986 -1163.7487   345.7662 H6            1 RES     
   22198 H6        1086.9599 -1164.7952   346.9583 H6            1 RES     
   22199 H6        1087.7148 -1171.4384   344.0900 H6            1 RES     
   22200 H6        1086.5506 -1171.6057   345.4470 H6            1 RES     
   22201 H6        1089.4245 -1172.7523   345.1150 H6            1 RES     
   22202 H6        1088.4315 -1172.9405   346.5782 H6            1 RES     
   22203 H6        1086.6299 -1174.0488   345.3296 H6            1 RES     
   22204 H6        1087.5694 -1173.9261   343.7926 H6            1 RES     
   22205 H6        1089.3511 -1175.4099   344.7478 H6            1 RES     
   22206 H6        1088.5197 -1175.3879   346.3198 H6            1 RES     
   22207 H6        1086.4534 -1176.4321   345.2328 H6            1 RES     
   22208 H6        1087.4044 -1176.5618   343.7120 H6            1 RES     
   22209 H6        1089.0518 -1178.0695   344.9264 H6            1 RES     
   22210 H6        1087.3636 -1178.6986   344.8751 H6            1 RES     
   22211 H6        1086.9453 -1177.8671   347.2038 H6            1 RES     
   22212 H6        1088.6624 -1177.3211   347.3174 H6            1 RES     
   22213 H6        1088.3591 -1179.5044   348.3970 H6            1 RES     
   22214 H6        1087.7299 -1180.2129   346.8626 H6            1 RES     
   22215 H6        1089.4508 -1179.6501   346.9665 H6            1 RES     
   22216 C0        1087.6605 -1171.9980   348.9975 C0            1 RES     
   22217 C0        1088.5344 -1173.2838   349.1758 C0            1 RES     
   22218 C0        1087.7099 -1174.5606   348.7888 C0            1 RES     
   22219 C0        1086.6036 -1175.1166   349.7191 C0            1 RES     
   22220 C0        1085.3040 -1174.2994   349.8677 C0            1 RES     
   22221 C0        1084.5664 -1173.9669   348.5534 C0            1 RES     
   22222 C0        1084.1492 -1175.2011   347.7431 C0            1 RES     
   22223 C0        1083.3817 -1174.7865   346.4893 C0            1 RES     
   22224 C0        1089.1629 -1173.5365   350.5777 C0            1 RES     
   22225 C0        1090.2532 -1172.5585   350.9818 C0            1 RES     
   22226 C0        1090.9554 -1172.9654   352.2780 C0            1 RES     
   22227 C0        1092.0715 -1171.9624   352.5915 C0            1 RES     
   22228 C0        1092.8118 -1172.3314   353.8828 C0            1 RES     
   22229 C0        1093.9813 -1171.3810   354.1912 C0            1 RES     
   22230 C0        1093.5338 -1169.9319   354.4406 C0            1 RES     
   22231 C0        1094.7202 -1169.0474   354.8091 C0            1 RES     
   22232 H6        1086.9836 -1171.9630   349.8688 H6            1 RES     
   22233 H6        1086.9858 -1172.1779   348.1459 H6            1 RES     
   22234 H6        1089.3619 -1173.2371   348.4412 H6            1 RES     
   22235 H6        1088.4533 -1175.3833   348.7084 H6            1 RES     
   22236 H6        1087.2606 -1174.4350   347.7893 H6            1 RES     
   22237 H6        1087.0240 -1175.3186   350.7252 H6            1 RES     
   22238 H6        1086.3139 -1176.1072   349.3073 H6            1 RES     
   22239 H6        1085.5065 -1173.3630   350.4144 H6            1 RES     
   22240 H6        1084.6142 -1174.8853   350.5133 H6            1 RES     
   22241 H6        1085.1867 -1173.3188   347.9099 H6            1 RES     
   22242 H6        1083.6533 -1173.3907   348.8209 H6            1 RES     
   22243 H6        1085.0461 -1175.7728   347.4252 H6            1 RES     
   22244 H6        1083.5021 -1175.8567   348.3647 H6            1 RES     
   22245 H6        1082.4623 -1174.2271   346.7662 H6            1 RES     
   22246 H6        1083.0893 -1175.6884   345.9124 H6            1 RES     
   22247 H6        1084.0162 -1174.1420   345.8430 H6            1 RES     
   22248 H6        1089.6483 -1174.5376   350.5465 H6            1 RES     
   22249 H6        1088.3737 -1173.5570   351.3603 H6            1 RES     
   22250 H6        1091.0205 -1172.5488   350.1823 H6            1 RES     
   22251 H6        1089.8005 -1171.5650   351.1337 H6            1 RES     
   22252 H6        1090.2199 -1172.9894   353.1109 H6            1 RES     
   22253 H6        1091.3995 -1173.9794   352.1584 H6            1 RES     
   22254 H6        1092.7987 -1171.9473   351.7490 H6            1 RES     
   22255 H6        1091.6141 -1170.9563   352.6903 H6            1 RES     
   22256 H6        1092.0997 -1172.3357   354.7366 H6            1 RES     
   22257 H6        1093.2288 -1173.3567   353.7718 H6            1 RES     
   22258 H6        1094.7119 -1171.4091   353.3527 H6            1 RES     
   22259 H6        1094.4887 -1171.7582   355.1061 H6            1 RES     
   22260 H6        1092.7958 -1169.9080   355.2714 H6            1 RES     
   22261 H6        1093.0648 -1169.5072   353.5290 H6            1 RES     
   22262 H6        1094.3682 -1168.0087   354.9834 H6            1 RES     
   22263 H6        1095.2056 -1169.4194   355.7363 H6            1 RES     
   22264 H6        1095.4642 -1169.0376   353.9841 H6            1 RES     
   22265 C0        1101.1861 -1171.6083   346.6425 C0            1 RES     
   22266 C1        1099.9949 -1171.2661   347.5466 C1            1 RES     
   22267 C1        1100.3653 -1170.9175   348.7987 C1            1 RES     
   22268 S2        1099.0578 -1170.5227   349.7631 S2            1 RES     
   22269 C1        1097.9432 -1170.8035   348.5025 C1            1 RES     
   22270 C1        1098.6154 -1171.2018   347.3412 C1            1 RES     
   22271 C1        1101.7787 -1170.9972   348.8803 C1            1 RES     
   22272 C1        1102.2923 -1171.4189   347.6877 C1            1 RES     
   22273 C1        1103.6841 -1171.5542   347.7191 C1            1 RES     
   22274 C1        1104.2066 -1171.2253   348.9963 C1            1 RES     
   22275 S2        1102.9417 -1170.7393   350.0347 S2            1 RES     
   22276 H3        1098.1288 -1171.4314   346.4035 H3            1 RES     
   22277 H3        1104.2626 -1171.8825   346.8688 H3            1 RES     
   22278 N4        1107.3054 -1170.6713   351.0717 N4            1 RES     
   22279 C1        1106.0272 -1170.5898   350.6038 C1            1 RES     
   22280 C1        1105.6168 -1171.3153   349.4612 C1            1 RES     
   22281 C1        1106.5780 -1172.1364   348.8443 C1            1 RES     
   22282 N4        1106.3386 -1172.9326   347.7718 N4            1 RES     
   22283 S2        1107.7974 -1173.6742   347.5399 S2            1 RES     
   22284 N4        1108.7507 -1173.0496   348.7351 N4            1 RES     
   22285 C1        1107.8985 -1172.2104   349.3714 C1            1 RES     
   22286 C1        1108.2458 -1171.4603   350.4869 C1            1 RES     
   22287 H5        1105.3360 -1169.9419   351.1251 H5            1 RES     
   22288 C0        1101.1875 -1170.4377   345.5864 C0            1 RES     
   22289 C0        1102.2960 -1170.0560   344.5431 C0            1 RES     
   22290 C0        1102.1032 -1168.5575   344.1066 C0            1 RES     
   22291 C0        1100.9685 -1168.1678   343.1133 C0            1 RES     
   22292 C0        1099.4973 -1168.3137   343.5545 C0            1 RES     
   22293 C0        1099.1144 -1167.5751   344.8515 C0            1 RES     
   22294 C0        1099.2801 -1166.0529   344.7528 C0            1 RES     
   22295 C0        1098.8323 -1165.3731   346.0449 C0            1 RES     
   22296 C0        1102.3831 -1170.9164   343.2502 C0            1 RES     
   22297 C0        1103.2176 -1172.1892   343.3607 C0            1 RES     
   22298 C0        1103.1258 -1173.0108   342.0616 C0            1 RES     
   22299 C0        1103.9076 -1174.3304   342.1570 C0            1 RES     
   22300 C0        1103.6045 -1175.2301   340.9462 C0            1 RES     
   22301 C0        1104.1932 -1176.6482   341.0638 C0            1 RES     
   22302 C0        1103.5408 -1177.4674   342.1954 C0            1 RES     
   22303 C0        1104.0536 -1178.9039   342.2189 C0            1 RES     
   22304 H6        1100.2264 -1170.5042   345.0573 H6            1 RES     
   22305 H6        1101.1543 -1169.5373   346.2387 H6            1 RES     
   22306 H6        1103.2775 -1170.0575   345.0675 H6            1 RES     
   22307 H6        1103.0435 -1168.2678   343.5856 H6            1 RES     
   22308 H6        1102.0533 -1167.9012   345.0018 H6            1 RES     
   22309 H6        1101.0974 -1168.7346   342.1672 H6            1 RES     
   22310 H6        1101.1281 -1167.0997   342.8535 H6            1 RES     
   22311 H6        1099.2351 -1169.3807   343.6447 H6            1 RES     
   22312 H6        1098.8537 -1167.9301   342.7329 H6            1 RES     
   22313 H6        1099.7078 -1167.9552   345.7033 H6            1 RES     
   22314 H6        1098.0454 -1167.7989   345.0616 H6            1 RES     
   22315 H6        1100.3435 -1165.7917   344.5724 H6            1 RES     
   22316 H6        1098.6644 -1165.6662   343.9119 H6            1 RES     
   22317 H6        1097.7635 -1165.5964   346.2500 H6            1 RES     
   22318 H6        1098.9532 -1164.2735   345.9493 H6            1 RES     
   22319 H6        1099.4483 -1165.7260   346.8996 H6            1 RES     
   22320 H6        1102.9046 -1170.3350   342.4565 H6            1 RES     
   22321 H6        1101.3511 -1171.1243   342.8907 H6            1 RES     
   22322 H6        1104.2754 -1171.9309   343.5852 H6            1 RES     
   22323 H6        1102.8314 -1172.7830   344.1778 H6            1 RES     
   22324 H6        1102.0509 -1173.2478   341.8957 H6            1 RES     
   22325 H6        1103.4951 -1172.4218   341.1940 H6            1 RES     
   22326 H6        1104.9988 -1174.1361   342.2374 H6            1 RES     
   22327 H6        1103.5998 -1174.8464   343.0748 H6            1 RES     
   22328 H6        1102.5043 -1175.3331   340.8155 H6            1 RES     
   22329 H6        1104.0116 -1174.7392   340.0348 H6            1 RES     
   22330 H6        1105.2936 -1176.5951   341.2071 H6            1 RES     
   22331 H6        1103.9901 -1177.1714   340.1039 H6            1 RES     
   22332 H6        1102.4383 -1177.4926   342.0476 H6            1 RES     
   22333 H6        1103.7605 -1177.0179   343.1817 H6            1 RES     
   22334 H6        1103.5561 -1179.4597   343.0397 H6            1 RES     
   22335 H6        1103.8262 -1179.4120   341.2573 H6            1 RES     
   22336 H6        1105.1518 -1178.9179   342.3921 H6            1 RES     
   22337 C0        1100.9066 -1173.0543   346.0640 C0            1 RES     
   22338 C0        1101.9000 -1174.2614   346.1331 C0            1 RES     
   22339 C0        1101.6474 -1175.2437   344.9367 C0            1 RES     
   22340 C0        1100.4181 -1176.1853   344.9145 C0            1 RES     
   22341 C0        1099.0254 -1175.5536   344.7143 C0            1 RES     
   22342 C0        1098.8600 -1174.6796   343.4531 C0            1 RES     
   22343 C0        1099.1328 -1175.4232   342.1391 C0            1 RES     
   22344 C0        1098.8961 -1174.5040   340.9423 C0            1 RES     
   22345 C0        1101.9139 -1175.1063   347.4408 C0            1 RES     
   22346 C0        1102.4625 -1174.3922   348.6646 C0            1 RES     
   22347 C0        1102.6224 -1175.3250   349.8657 C0            1 RES     
   22348 C0        1103.2260 -1174.5471   351.0407 C0            1 RES     
   22349 C0        1103.4123 -1175.4431   352.2711 C0            1 RES     
   22350 C0        1104.0771 -1174.7085   353.4477 C0            1 RES     
   22351 C0        1103.2359 -1173.5393   353.9843 C0            1 RES     
   22352 C0        1103.9057 -1172.8903   355.1908 C0            1 RES     
   22353 H6        1099.9370 -1173.4325   346.4319 H6            1 RES     
   22354 H6        1100.7214 -1172.8450   344.9987 H6            1 RES     
   22355 H6        1102.9238 -1173.8686   345.9770 H6            1 RES     
   22356 H6        1102.5266 -1175.9239   344.9180 H6            1 RES     
   22357 H6        1101.6494 -1174.6900   343.9828 H6            1 RES     
   22358 H6        1100.4063 -1176.8108   345.8302 H6            1 RES     
   22359 H6        1100.5753 -1176.8890   344.0689 H6            1 RES     
   22360 H6        1098.7476 -1174.9612   345.6025 H6            1 RES     
   22361 H6        1098.2879 -1176.3836   344.6597 H6            1 RES     
   22362 H6        1099.5211 -1173.7966   343.4995 H6            1 RES     
   22363 H6        1097.8117 -1174.3077   343.4412 H6            1 RES     
   22364 H6        1100.1874 -1175.7687   342.1053 H6            1 RES     
   22365 H6        1098.4594 -1176.3036   342.0595 H6            1 RES     
   22366 H6        1097.8424 -1174.1515   340.9282 H6            1 RES     
   22367 H6        1099.1000 -1175.0540   340.0002 H6            1 RES     
   22368 H6        1099.5717 -1173.6227   340.9921 H6            1 RES     
   22369 H6        1102.5893 -1175.9737   347.2664 H6            1 RES     
   22370 H6        1100.8971 -1175.4965   347.6632 H6            1 RES     
   22371 H6        1103.4700 -1174.0044   348.4141 H6            1 RES     
   22372 H6        1101.7664 -1173.5853   348.9465 H6            1 RES     
   22373 H6        1101.6319 -1175.7399   350.1524 H6            1 RES     
   22374 H6        1103.3022 -1176.1649   349.5971 H6            1 RES     
   22375 H6        1104.2154 -1174.1360   350.7390 H6            1 RES     
   22376 H6        1102.5453 -1173.7051   351.2835 H6            1 RES     
   22377 H6        1102.4287 -1175.8492   352.5931 H6            1 RES     
   22378 H6        1104.0673 -1176.2975   351.9916 H6            1 RES     
   22379 H6        1105.0781 -1174.3377   353.1342 H6            1 RES     
   22380 H6        1104.2216 -1175.4469   354.2666 H6            1 RES     
   22381 H6        1102.2327 -1173.9107   354.2865 H6            1 RES     
   22382 H6        1103.1122 -1172.7592   353.2049 H6            1 RES     
   22383 H6        1103.2772 -1172.0510   355.5567 H6            1 RES     
   22384 H6        1104.0245 -1173.6301   356.0106 H6            1 RES     
   22385 H6        1104.9036 -1172.4915   354.9090 H6            1 RES     
   22386 C0        1113.6304 -1171.3331   350.9407 C0            1 RES     
   22387 C1        1112.1246 -1171.4640   351.2028 C1            1 RES     
   22388 C1        1111.8337 -1171.7110   352.4993 C1            1 RES     
   22389 S2        1110.1882 -1171.8249   352.7724 S2            1 RES     
   22390 C1        1109.8164 -1171.5306   351.1336 C1            1 RES     
   22391 C1        1110.9913 -1171.3453   350.3960 C1            1 RES     
   22392 C1        1113.0529 -1171.7866   353.2195 C1            1 RES     
   22393 C1        1114.1082 -1171.6117   352.3711 C1            1 RES     
   22394 C1        1115.3428 -1171.7147   353.0201 C1            1 RES     
   22395 C1        1115.1789 -1171.9871   354.4026 C1            1 RES     
   22396 S2        1113.5175 -1172.0522   354.7897 S2            1 RES     
   22397 H3        1111.0189 -1171.1372   349.3354 H3            1 RES     
   22398 H3        1116.2873 -1171.6097   352.5077 H3            1 RES     
   22399 N4        1116.8734 -1172.3609   357.7501 N4            1 RES     
   22400 C1        1115.9360 -1172.1057   356.7933 C1            1 RES     
   22401 C1        1116.2350 -1172.2454   355.4180 C1            1 RES     
   22402 C1        1117.5317 -1172.6765   355.0848 C1            1 RES     
   22403 N4        1117.9672 -1172.9070   353.8204 N4            1 RES     
   22404 S2        1119.5164 -1173.4301   354.0617 S2            1 RES     
   22405 N4        1119.6934 -1173.3919   355.7032 N4            1 RES     
   22406 C1        1118.4792 -1172.9507   356.1115 C1            1 RES     
   22407 C1        1118.1308 -1172.7785   357.4443 C1            1 RES     
   22408 H5        1114.9567 -1171.7796   357.1159 H5            1 RES     
   22409 C0        1113.8018 -1169.8118   350.5640 C0            1 RES     
   22410 C0        1115.1225 -1168.9744   350.4316 C0            1 RES     
   22411 C0        1114.7831 -1167.4453   350.5729 C0            1 RES     
   22412 C0        1114.1209 -1166.6745   349.3925 C0            1 RES     
   22413 C0        1112.6829 -1167.0377   348.9673 C0            1 RES     
   22414 C0        1111.6223 -1166.9744   350.0832 C0            1 RES     
   22415 C0        1111.4471 -1165.5688   350.6729 C0            1 RES     
   22416 C0        1110.3457 -1165.5572   351.7308 C0            1 RES     
   22417 C0        1115.9520 -1169.1549   349.1282 C0            1 RES     
   22418 C0        1116.9366 -1170.3206   349.1299 C0            1 RES     
   22419 C0        1117.6032 -1170.4679   347.7497 C0            1 RES     
   22420 C0        1118.5594 -1171.6698   347.6960 C0            1 RES     
   22421 C0        1119.0225 -1171.9314   346.2522 C0            1 RES     
   22422 C0        1119.8239 -1173.2356   346.0841 C0            1 RES     
   22423 C0        1118.9683 -1174.4926   346.3389 C0            1 RES     
   22424 C0        1119.7477 -1175.7722   346.0530 C0            1 RES     
   22425 H6        1113.2026 -1169.6538   349.6563 H6            1 RES     
   22426 H6        1113.2819 -1169.3047   351.4065 H6            1 RES     
   22427 H6        1115.7577 -1169.1905   351.3194 H6            1 RES     
   22428 H6        1115.7570 -1166.9300   350.7329 H6            1 RES     
   22429 H6        1114.2035 -1167.2661   351.5038 H6            1 RES     
   22430 H6        1114.7699 -1166.7492   348.4946 H6            1 RES     
   22431 H6        1114.1168 -1165.6011   349.6779 H6            1 RES     
   22432 H6        1112.6692 -1168.0359   348.4993 H6            1 RES     
   22433 H6        1112.3783 -1166.3389   348.1579 H6            1 RES     
   22434 H6        1111.8694 -1167.6849   350.8933 H6            1 RES     
   22435 H6        1110.6523 -1167.2934   349.6422 H6            1 RES     
   22436 H6        1112.3906 -1165.2301   351.1489 H6            1 RES     
   22437 H6        1111.1743 -1164.8578   349.8631 H6            1 RES     
   22438 H6        1109.3779 -1165.8734   351.2861 H6            1 RES     
   22439 H6        1110.2306 -1164.5308   352.1383 H6            1 RES     
   22440 H6        1110.6049 -1166.2443   352.5646 H6            1 RES     
   22441 H6        1116.6063 -1168.2657   348.9831 H6            1 RES     
   22442 H6        1115.2524 -1169.2012   348.2645 H6            1 RES     
   22443 H6        1117.7040 -1170.1677   349.9197 H6            1 RES     
   22444 H6        1116.3934 -1171.2285   349.3543 H6            1 RES     
   22445 H6        1116.7910 -1170.6287   347.0058 H6            1 RES     
   22446 H6        1118.1542 -1169.5420   347.4756 H6            1 RES     
   22447 H6        1119.4324 -1171.5080   348.3642 H6            1 RES     
   22448 H6        1118.0235 -1172.5519   348.0674 H6            1 RES     
   22449 H6        1118.1412 -1171.9892   345.5752 H6            1 RES     
   22450 H6        1119.6484 -1171.0723   345.9244 H6            1 RES     
   22451 H6        1120.7119 -1173.2279   346.7517 H6            1 RES     
   22452 H6        1120.1784 -1173.2725   345.0308 H6            1 RES     
   22453 H6        1118.0738 -1174.4733   345.6774 H6            1 RES     
   22454 H6        1118.6346 -1174.5327   347.3925 H6            1 RES     
   22455 H6        1119.0967 -1176.6504   346.2408 H6            1 RES     
   22456 H6        1120.0780 -1175.7956   344.9924 H6            1 RES     
   22457 H6        1120.6369 -1175.8380   346.7172 H6            1 RES     
   22458 C0        1113.9755 -1172.3672   349.7938 C0            1 RES     
   22459 C0        1115.1010 -1173.4520   349.8656 C0            1 RES     
   22460 C0        1115.6217 -1173.7927   348.4259 C0            1 RES     
   22461 C0        1114.7810 -1174.6503   347.4481 C0            1 RES     
   22462 C0        1113.4991 -1174.0282   346.8577 C0            1 RES     
   22463 C0        1113.6823 -1172.6825   346.1248 C0            1 RES     
   22464 C0        1114.6553 -1172.7450   344.9402 C0            1 RES     
   22465 C0        1114.7381 -1171.3897   344.2406 C0            1 RES     
   22466 C0        1114.7588 -1174.7964   350.5725 C0            1 RES     
   22467 C0        1114.5488 -1174.7005   352.0743 C0            1 RES     
   22468 C0        1114.4003 -1176.0718   352.7347 C0            1 RES     
   22469 C0        1114.2438 -1175.8957   354.2495 C0            1 RES     
   22470 C0        1114.0971 -1177.2467   354.9599 C0            1 RES     
   22471 C0        1114.0038 -1177.1086   356.4890 C0            1 RES     
   22472 C0        1112.7632 -1176.3280   356.9516 C0            1 RES     
   22473 C0        1112.6819 -1176.2796   358.4736 C0            1 RES     
   22474 H6        1113.0622 -1172.8929   349.4654 H6            1 RES     
   22475 H6        1114.2163 -1171.7031   348.9489 H6            1 RES     
   22476 H6        1115.9683 -1173.0079   350.3921 H6            1 RES     
   22477 H6        1116.5595 -1174.3706   348.5764 H6            1 RES     
   22478 H6        1115.8969 -1172.8675   347.8920 H6            1 RES     
   22479 H6        1114.5306 -1175.6223   347.9196 H6            1 RES     
   22480 H6        1115.4446 -1174.8918   346.5901 H6            1 RES     
   22481 H6        1112.7386 -1173.9080   347.6476 H6            1 RES     
   22482 H6        1113.0753 -1174.7605   346.1365 H6            1 RES     
   22483 H6        1114.0303 -1171.9011   346.8228 H6            1 RES     
   22484 H6        1112.6832 -1172.3694   345.7493 H6            1 RES     
   22485 H6        1115.6730 -1173.0137   345.2930 H6            1 RES     
   22486 H6        1114.3100 -1173.5094   344.2112 H6            1 RES     
   22487 H6        1113.7397 -1171.0931   343.8532 H6            1 RES     
   22488 H6        1115.4469 -1171.4494   343.3887 H6            1 RES     
   22489 H6        1115.0977 -1170.6110   344.9476 H6            1 RES     
   22490 H6        1115.6290 -1175.4756   350.4297 H6            1 RES     
   22491 H6        1113.8688 -1175.2681   350.1025 H6            1 RES     
   22492 H6        1115.4431 -1174.2185   352.5169 H6            1 RES     
   22493 H6        1113.6292 -1174.1245   352.2681 H6            1 RES     
   22494 H6        1113.5118 -1176.5940   352.3182 H6            1 RES     
   22495 H6        1115.3078 -1176.6837   352.5307 H6            1 RES     
   22496 H6        1115.1386 -1175.3702   354.6522 H6            1 RES     
   22497 H6        1113.3459 -1175.2703   354.4336 H6            1 RES     
   22498 H6        1113.1976 -1177.7769   354.5778 H6            1 RES     
   22499 H6        1114.9912 -1177.8672   354.7297 H6            1 RES     
   22500 H6        1114.9233 -1176.6134   356.8725 H6            1 RES     
   22501 H6        1113.9579 -1178.1340   356.9170 H6            1 RES     
   22502 H6        1111.8467 -1176.8187   356.5580 H6            1 RES     
   22503 H6        1112.8006 -1175.2828   356.5807 H6            1 RES     
   22504 H6        1111.7780 -1175.7111   358.7786 H6            1 RES     
   22505 H6        1112.6134 -1177.3073   358.8893 H6            1 RES     
   22506 H6        1113.5786 -1175.7739   358.8913 H6            1 RES     
   22507 C0        1122.6122 -1172.7473   360.4664 C0            1 RES     
   22508 C1        1121.2164 -1173.0169   359.8897 C1            1 RES     
   22509 C1        1120.4706 -1173.8300   360.6701 C1            1 RES     
   22510 S2        1118.9441 -1174.0927   360.0406 S2            1 RES     
   22511 C1        1119.2451 -1173.0978   358.6879 C1            1 RES     
   22512 C1        1120.5407 -1172.5721   358.7518 C1            1 RES     
   22513 C1        1121.2479 -1174.1953   361.7984 C1            1 RES     
   22514 C1        1122.4884 -1173.6316   361.7133 C1            1 RES     
   22515 C1        1123.3161 -1173.9887   362.7827 C1            1 RES     
   22516 C1        1122.6507 -1174.8605   363.6825 C1            1 RES     
   22517 S2        1121.0503 -1175.1315   363.1535 S2            1 RES     
   22518 H3        1120.9655 -1171.9063   358.0135 H3            1 RES     
   22519 H3        1124.3338 -1173.6419   362.8803 H3            1 RES     
   22520 N4        1122.7987 -1176.6688   366.9878 N4            1 RES     
   22521 C1        1122.3254 -1176.0301   365.8800 C1            1 RES     
   22522 C1        1123.2036 -1175.5259   364.8927 C1            1 RES     
   22523 C1        1124.5804 -1175.7300   365.0954 C1            1 RES     
   22524 N4        1125.5525 -1175.3538   364.2265 N4            1 RES     
   22525 S2        1126.9278 -1175.8939   364.9671 S2            1 RES     
   22526 N4        1126.3764 -1176.5981   366.3554 N4            1 RES     
   22527 C1        1125.0375 -1176.4171   366.2556 C1            1 RES     
   22528 C1        1124.1263 -1176.8742   367.1981 C1            1 RES     
   22529 H5        1121.2553 -1175.9076   365.7827 H5            1 RES     
   22530 C0        1122.5602 -1171.2166   360.8405 C0            1 RES     
   22531 C0        1123.5712 -1170.3799   361.7012 C0            1 RES     
   22532 C0        1122.8513 -1169.0882   362.2364 C0            1 RES     
   22533 C0        1122.5907 -1167.8823   361.2857 C0            1 RES     
   22534 C0        1121.6013 -1168.0467   360.1133 C0            1 RES     
   22535 C0        1120.1858 -1168.5190   360.4975 C0            1 RES     
   22536 C0        1119.4483 -1167.5364   361.4166 C0            1 RES     
   22537 C0        1118.0342 -1168.0296   361.7156 C0            1 RES     
   22538 C0        1124.8922 -1169.9325   361.0124 C0            1 RES     
   22539 C0        1126.0287 -1170.9503   361.0431 C0            1 RES     
   22540 C0        1127.2321 -1170.4423   360.2277 C0            1 RES     
   22541 C0        1128.3759 -1171.4677   360.1871 C0            1 RES     
   22542 C0        1129.4556 -1171.0375   359.1789 C0            1 RES     
   22543 C0        1130.5372 -1172.1061   358.9340 C0            1 RES     
   22544 C0        1129.9802 -1173.3616   358.2335 C0            1 RES     
   22545 C0        1131.0867 -1174.3555   357.8950 C0            1 RES     
   22546 H6        1122.3846 -1170.6790   359.8982 H6            1 RES     
   22547 H6        1121.6277 -1171.1574   361.4441 H6            1 RES     
   22548 H6        1123.8006 -1170.9595   362.6230 H6            1 RES     
   22549 H6        1123.5117 -1168.6788   363.0338 H6            1 RES     
   22550 H6        1121.9071 -1169.3626   362.7539 H6            1 RES     
   22551 H6        1123.5566 -1167.5280   360.8680 H6            1 RES     
   22552 H6        1122.2108 -1167.0544   361.9212 H6            1 RES     
   22553 H6        1122.0252 -1168.7254   359.3549 H6            1 RES     
   22554 H6        1121.5127 -1167.0646   359.5996 H6            1 RES     
   22555 H6        1120.2267 -1169.5133   360.9792 H6            1 RES     
   22556 H6        1119.6014 -1168.6262   359.5573 H6            1 RES     
   22557 H6        1119.9900 -1167.4281   362.3791 H6            1 RES     
   22558 H6        1119.3848 -1166.5426   360.9228 H6            1 RES     
   22559 H6        1117.4527 -1168.1326   360.7745 H6            1 RES     
   22560 H6        1117.5167 -1167.3013   362.3748 H6            1 RES     
   22561 H6        1118.0700 -1169.0133   362.2308 H6            1 RES     
   22562 H6        1125.3140 -1169.0592   361.5593 H6            1 RES     
   22563 H6        1124.6587 -1169.5993   359.9771 H6            1 RES     
   22564 H6        1126.3275 -1171.1536   362.0945 H6            1 RES     
   22565 H6        1125.6747 -1171.8736   360.6053 H6            1 RES     
   22566 H6        1126.8765 -1170.2677   359.1875 H6            1 RES     
   22567 H6        1127.6098 -1169.4801   360.6373 H6            1 RES     
   22568 H6        1128.8165 -1171.6057   361.1980 H6            1 RES     
   22569 H6        1127.9597 -1172.4344   359.8781 H6            1 RES     
   22570 H6        1128.9869 -1170.8031   358.1973 H6            1 RES     
   22571 H6        1129.9375 -1170.1090   359.5570 H6            1 RES     
   22572 H6        1131.0277 -1172.3808   359.8922 H6            1 RES     
   22573 H6        1131.3028 -1171.6546   358.2658 H6            1 RES     
   22574 H6        1129.4750 -1173.0657   357.2874 H6            1 RES     
   22575 H6        1129.2510 -1173.8815   358.8824 H6            1 RES     
   22576 H6        1130.6469 -1175.2383   357.3875 H6            1 RES     
   22577 H6        1131.8311 -1173.8892   357.2146 H6            1 RES     
   22578 H6        1131.5972 -1174.6942   358.8229 H6            1 RES     
   22579 C0        1123.6464 -1173.1428   359.3360 C0            1 RES     
   22580 C0        1124.8570 -1174.1169   359.5213 C0            1 RES     
   22581 C0        1126.0041 -1173.7577   358.5138 C0            1 RES     
   22582 C0        1125.8886 -1174.0994   357.0077 C0            1 RES     
   22583 C0        1124.8715 -1173.3070   356.1613 C0            1 RES     
   22584 C0        1125.0228 -1171.7715   356.1940 C0            1 RES     
   22585 C0        1126.3906 -1171.2694   355.7136 C0            1 RES     
   22586 C0        1126.4379 -1169.7427   355.7274 C0            1 RES     
   22587 C0        1124.5775 -1175.6431   359.3914 C0            1 RES     
   22588 C0        1123.7336 -1176.2414   360.5043 C0            1 RES     
   22589 C0        1123.6494 -1177.7661   360.4216 C0            1 RES     
   22590 C0        1122.8278 -1178.2977   361.6016 C0            1 RES     
   22591 C0        1122.7191 -1179.8269   361.5669 C0            1 RES     
   22592 C0        1121.9556 -1180.3973   362.7743 C0            1 RES     
   22593 C0        1120.4898 -1179.9388   362.8349 C0            1 RES     
   22594 C0        1119.7610 -1180.5857   364.0079 C0            1 RES     
   22595 H6        1123.1128 -1173.4839   358.4319 H6            1 RES     
   22596 H6        1124.0575 -1172.1631   359.0462 H6            1 RES     
   22597 H6        1125.2856 -1173.9392   360.5270 H6            1 RES     
   22598 H6        1126.8969 -1174.3196   358.8649 H6            1 RES     
   22599 H6        1126.2513 -1172.6851   358.5853 H6            1 RES     
   22600 H6        1125.7007 -1175.1850   356.8813 H6            1 RES     
   22601 H6        1126.8900 -1173.9116   356.5642 H6            1 RES     
   22602 H6        1123.8431 -1173.5744   356.4576 H6            1 RES     
   22603 H6        1124.9814 -1173.6435   355.1075 H6            1 RES     
   22604 H6        1124.8448 -1171.3825   357.2118 H6            1 RES     
   22605 H6        1124.2349 -1171.3454   355.5346 H6            1 RES     
   22606 H6        1127.1939 -1171.6453   356.3815 H6            1 RES     
   22607 H6        1126.5802 -1171.6292   354.6794 H6            1 RES     
   22608 H6        1125.6596 -1169.3259   355.0527 H6            1 RES     
   22609 H6        1127.4330 -1169.3946   355.3807 H6            1 RES     
   22610 H6        1126.2668 -1169.3599   356.7569 H6            1 RES     
   22611 H6        1125.5598 -1176.1642   359.4406 H6            1 RES     
   22612 H6        1124.1116 -1175.8713   358.4083 H6            1 RES     
   22613 H6        1124.2125 -1175.9914   361.4719 H6            1 RES     
   22614 H6        1122.7110 -1175.8365   360.4313 H6            1 RES     
   22615 H6        1123.1741 -1178.0637   359.4619 H6            1 RES     
   22616 H6        1124.6743 -1178.1987   360.4669 H6            1 RES     
   22617 H6        1123.3136 -1177.9907   362.5549 H6            1 RES     
   22618 H6        1121.8165 -1177.8438   361.5506 H6            1 RES     
   22619 H6        1122.2215 -1180.1474   360.6258 H6            1 RES     
   22620 H6        1123.7454 -1180.2556   361.5818 H6            1 RES     
   22621 H6        1122.4783 -1180.1082   363.7128 H6            1 RES     
   22622 H6        1121.9775 -1181.5061   362.6925 H6            1 RES     
   22623 H6        1119.9728 -1180.2192   361.8917 H6            1 RES     
   22624 H6        1120.4315 -1178.8383   362.9650 H6            1 RES     
   22625 H6        1118.7068 -1180.2374   364.0270 H6            1 RES     
   22626 H6        1119.7690 -1181.6916   363.9047 H6            1 RES     
   22627 H6        1120.2469 -1180.3032   364.9663 H6            1 RES     
   22628 C0        1126.7510 -1178.1107   371.7587 C0            1 RES     
   22629 C1        1125.8405 -1178.1222   370.5240 C1            1 RES     
   22630 C1        1125.0509 -1179.2171   370.4603 C1            1 RES     
   22631 S2        1124.0469 -1179.2015   369.1235 S2            1 RES     
   22632 C1        1124.6477 -1177.6958   368.5921 C1            1 RES     
   22633 C1        1125.6275 -1177.2264   369.4744 C1            1 RES     
   22634 C1        1125.3378 -1180.0353   371.5824 C1            1 RES     
   22635 C1        1126.3237 -1179.4658   372.3358 C1            1 RES     
   22636 C1        1126.6777 -1180.2489   373.4392 C1            1 RES     
   22637 C1        1125.9215 -1181.4483   373.4857 C1            1 RES     
   22638 S2        1124.8123 -1181.4873   372.1885 S2            1 RES     
   22639 H3        1126.1539 -1176.2893   369.3584 H3            1 RES     
   22640 H3        1127.4429 -1179.9606   374.1441 H3            1 RES     
   22641 N4        1125.0774 -1184.5519   375.4534 N4            1 RES     
   22642 C1        1124.9823 -1183.4923   374.6005 C1            1 RES     
   22643 C1        1126.0489 -1182.5762   374.4473 C1            1 RES     
   22644 C1        1127.2142 -1182.8185   375.1968 C1            1 RES     
   22645 N4        1128.3429 -1182.0679   375.1326 N4            1 RES     
   22646 S2        1129.3585 -1182.8530   376.1739 S2            1 RES     
   22647 N4        1128.4547 -1184.1213   376.7235 N4            1 RES     
   22648 C1        1127.2843 -1183.9453   376.0642 C1            1 RES     
   22649 C1        1126.1967 -1184.7999   376.1845 C1            1 RES     
   22650 H5        1124.0596 -1183.3635   374.0514 H5            1 RES     
   22651 C0        1126.1829 -1176.9162   372.6167 C0            1 RES     
   22652 C0        1126.5019 -1176.5364   374.1057 C0            1 RES     
   22653 C0        1125.3387 -1175.6431   374.6734 C0            1 RES     
   22654 C0        1125.2281 -1174.1439   374.2657 C0            1 RES     
   22655 C0        1124.9005 -1173.7830   372.8018 C0            1 RES     
   22656 C0        1123.6130 -1174.4101   372.2332 C0            1 RES     
   22657 C0        1122.3449 -1173.9665   372.9744 C0            1 RES     
   22658 C0        1121.0998 -1174.5736   372.3316 C0            1 RES     
   22659 C0        1127.8421 -1175.7959   374.3798 C0            1 RES     
   22660 C0        1129.0639 -1176.6912   374.5641 C0            1 RES     
   22661 C0        1130.3406 -1175.8421   374.7051 C0            1 RES     
   22662 C0        1131.6009 -1176.7119   374.8340 C0            1 RES     
   22663 C0        1132.8700 -1175.8478   374.7337 C0            1 RES     
   22664 C0        1134.1728 -1176.6651   374.6555 C0            1 RES     
   22665 C0        1134.2820 -1177.4805   373.3515 C0            1 RES     
   22666 C0        1135.6287 -1178.1883   373.2407 C0            1 RES     
   22667 H6        1126.3018 -1176.0147   371.9994 H6            1 RES     
   22668 H6        1125.0980 -1177.1577   372.6598 H6            1 RES     
   22669 H6        1126.4487 -1177.4648   374.7168 H6            1 RES     
   22670 H6        1125.4798 -1175.6236   375.7776 H6            1 RES     
   22671 H6        1124.3593 -1176.1433   374.5146 H6            1 RES     
   22672 H6        1126.1650 -1173.6171   374.5441 H6            1 RES     
   22673 H6        1124.4296 -1173.7017   374.8986 H6            1 RES     
   22674 H6        1125.7541 -1174.0354   372.1514 H6            1 RES     
   22675 H6        1124.8077 -1172.6770   372.7343 H6            1 RES     
   22676 H6        1123.6805 -1175.5135   372.2478 H6            1 RES     
   22677 H6        1123.5271 -1174.0938   371.1704 H6            1 RES     
   22678 H6        1122.3838 -1174.2928   374.0343 H6            1 RES     
   22679 H6        1122.2629 -1172.8585   372.9392 H6            1 RES     
   22680 H6        1121.0157 -1174.2532   371.2711 H6            1 RES     
   22681 H6        1120.1947 -1174.2342   372.8778 H6            1 RES     
   22682 H6        1121.1461 -1175.6829   372.3740 H6            1 RES     
   22683 H6        1127.7708 -1175.2548   375.3504 H6            1 RES     
   22684 H6        1127.9984 -1175.0359   373.5827 H6            1 RES     
   22685 H6        1128.9269 -1177.3411   375.4557 H6            1 RES     
   22686 H6        1129.1599 -1177.3246   373.6927 H6            1 RES     
   22687 H6        1130.4301 -1175.2242   373.7836 H6            1 RES     
   22688 H6        1130.2680 -1175.1608   375.5808 H6            1 RES     
   22689 H6        1131.5894 -1177.2820   375.7879 H6            1 RES     
   22690 H6        1131.5982 -1177.4436   374.0168 H6            1 RES     
   22691 H6        1132.8215 -1175.2056   373.8263 H6            1 RES     
   22692 H6        1132.9097 -1175.1799   375.6223 H6            1 RES     
   22693 H6        1134.2598 -1177.3322   375.5396 H6            1 RES     
   22694 H6        1135.0181 -1175.9429   374.6774 H6            1 RES     
   22695 H6        1134.1721 -1176.8004   372.4778 H6            1 RES     
   22696 H6        1133.4930 -1178.2541   373.3057 H6            1 RES     
   22697 H6        1135.6698 -1178.7560   372.2887 H6            1 RES     
   22698 H6        1136.4571 -1177.4480   373.2485 H6            1 RES     
   22699 H6        1135.7613 -1178.8983   374.0861 H6            1 RES     
   22700 C0        1128.2284 -1177.9286   371.2222 C0            1 RES     
   22701 C0        1129.4390 -1178.8533   371.5806 C0            1 RES     
   22702 C0        1130.7835 -1178.0512   371.4863 C0            1 RES     
   22703 C0        1131.4032 -1177.6775   370.1171 C0            1 RES     
   22704 C0        1130.6857 -1176.6114   369.2641 C0            1 RES     
   22705 C0        1130.4390 -1175.2537   369.9551 C0            1 RES     
   22706 C0        1131.7186 -1174.5575   370.4366 C0            1 RES     
   22707 C0        1131.3911 -1173.2015   371.0587 C0            1 RES     
   22708 C0        1129.6126 -1180.1617   370.7547 C0            1 RES     
   22709 C0        1128.5451 -1181.2177   370.9869 C0            1 RES     
   22710 C0        1128.8691 -1182.5417   370.2935 C0            1 RES     
   22711 C0        1127.7766 -1183.5680   370.6150 C0            1 RES     
   22712 C0        1128.0599 -1184.9182   369.9456 C0            1 RES     
   22713 C0        1127.0158 -1185.9903   370.3017 C0            1 RES     
   22714 C0        1125.6005 -1185.6423   369.8136 C0            1 RES     
   22715 C0        1124.6196 -1186.7662   370.1302 C0            1 RES     
   22716 H6        1128.2272 -1177.8361   370.1223 H6            1 RES     
   22717 H6        1128.4778 -1176.9146   371.5723 H6            1 RES     
   22718 H6        1129.3442 -1179.1398   372.6462 H6            1 RES     
   22719 H6        1131.5479 -1178.6906   371.9790 H6            1 RES     
   22720 H6        1130.7141 -1177.1215   372.0758 H6            1 RES     
   22721 H6        1131.5508 -1178.5925   369.5082 H6            1 RES     
   22722 H6        1132.4217 -1177.2865   370.3282 H6            1 RES     
   22723 H6        1129.7250 -1177.0073   368.8937 H6            1 RES     
   22724 H6        1131.3091 -1176.4324   368.3613 H6            1 RES     
   22725 H6        1129.7588 -1175.3711   370.8168 H6            1 RES     
   22726 H6        1129.9293 -1174.5935   369.2191 H6            1 RES     
   22727 H6        1132.2261 -1175.1764   371.2060 H6            1 RES     
   22728 H6        1132.4088 -1174.4063   369.5788 H6            1 RES     
   22729 H6        1130.8986 -1172.5424   370.3118 H6            1 RES     
   22730 H6        1132.3250 -1172.7115   371.4046 H6            1 RES     
   22731 H6        1130.7136 -1173.3296   371.9305 H6            1 RES     
   22732 H6        1130.5738 -1180.6261   371.0699 H6            1 RES     
   22733 H6        1129.6772 -1179.9313   369.6692 H6            1 RES     
   22734 H6        1128.4933 -1181.4214   372.0749 H6            1 RES     
   22735 H6        1127.5865 -1180.8470   370.5886 H6            1 RES     
   22736 H6        1128.9320 -1182.3839   369.1951 H6            1 RES     
   22737 H6        1129.8481 -1182.9245   370.6605 H6            1 RES     
   22738 H6        1127.7234 -1183.7143   371.7171 H6            1 RES     
   22739 H6        1126.8069 -1183.1633   370.2584 H6            1 RES     
   22740 H6        1128.1009 -1184.7898   368.8420 H6            1 RES     
   22741 H6        1129.0521 -1185.2838   370.2909 H6            1 RES     
   22742 H6        1127.0054 -1186.1449   371.4034 H6            1 RES     
   22743 H6        1127.3333 -1186.9414   369.8210 H6            1 RES     
   22744 H6        1125.6160 -1185.4776   368.7144 H6            1 RES     
   22745 H6        1125.2328 -1184.7213   370.3114 H6            1 RES     
   22746 H6        1123.6077 -1186.4883   369.7670 H6            1 RES     
   22747 H6        1124.9333 -1187.7054   369.6269 H6            1 RES     
   22748 H6        1124.5701 -1186.9366   371.2269 H6            1 RES     
   22749 C0        1126.8475 -1187.9047   380.5609 C0            1 RES     
   22750 C1        1126.5790 -1187.3774   379.1455 C1            1 RES     
   22751 C1        1126.1764 -1188.3429   378.2898 C1            1 RES     
   22752 S2        1125.8631 -1187.7474   376.7593 S2            1 RES     
   22753 C1        1126.2557 -1186.1509   377.2147 C1            1 RES     
   22754 C1        1126.6256 -1186.1090   378.5639 C1            1 RES     
   22755 C1        1126.1451 -1189.5733   378.9941 C1            1 RES     
   22756 C1        1126.5513 -1189.3837   380.2837 C1            1 RES     
   22757 C1        1126.5781 -1190.5728   381.0195 C1            1 RES     
   22758 C1        1126.1829 -1191.6805   380.2262 C1            1 RES     
   22759 S2        1125.7739 -1191.1540   378.6546 S2            1 RES     
   22760 H3        1126.9119 -1185.2089   379.0899 H3            1 RES     
   22761 H3        1126.8789 -1190.6170   382.0555 H3            1 RES     
   22762 N4        1125.3477 -1195.3568   380.1634 N4            1 RES     
   22763 C1        1125.3749 -1194.0285   379.8566 C1            1 RES     
   22764 C1        1126.1540 -1193.1181   380.6078 C1            1 RES     
   22765 C1        1126.9115 -1193.6464   381.6687 C1            1 RES     
   22766 N4        1127.7464 -1192.9224   382.4562 N4            1 RES     
   22767 S2        1128.3782 -1194.0701   383.4639 S2            1 RES     
   22768 N4        1127.6567 -1195.4701   382.9670 N4            1 RES     
   22769 C1        1126.8723 -1195.0418   381.9489 C1            1 RES     
   22770 C1        1126.0742 -1195.8829   381.1853 C1            1 RES     
   22771 H5        1124.7713 -1193.6864   379.0270 H5            1 RES     
   22772 C0        1125.7030 -1187.2407   381.4182 C0            1 RES     
   22773 C0        1125.2593 -1187.5680   382.8875 C0            1 RES     
   22774 C0        1123.7897 -1187.0547   383.1117 C0            1 RES     
   22775 C0        1123.5098 -1185.5362   383.3159 C0            1 RES     
   22776 C0        1123.7592 -1184.5599   382.1475 C0            1 RES     
   22777 C0        1123.0250 -1184.8914   380.8341 C0            1 RES     
   22778 C0        1121.4969 -1184.8599   380.9701 C0            1 RES     
   22779 C0        1120.8264 -1185.1390   379.6268 C0            1 RES     
   22780 C0        1126.1377 -1187.0011   384.0393 C0            1 RES     
   22781 C0        1127.3397 -1187.8548   384.4326 C0            1 RES     
   22782 C0        1128.1934 -1187.1324   385.4910 C0            1 RES     
   22783 C0        1129.4465 -1187.9375   385.8694 C0            1 RES     
   22784 C0        1130.3924 -1187.0926   386.7406 C0            1 RES     
   22785 C0        1131.7581 -1187.7562   386.9974 C0            1 RES     
   22786 C0        1132.6009 -1187.8912   385.7135 C0            1 RES     
   22787 C0        1133.9927 -1188.4414   386.0083 C0            1 RES     
   22788 H6        1125.8546 -1186.1550   381.3391 H6            1 RES     
   22789 H6        1124.7942 -1187.5002   380.8316 H6            1 RES     
   22790 H6        1125.1740 -1188.6733   382.9833 H6            1 RES     
   22791 H6        1123.4395 -1187.5335   384.0539 H6            1 RES     
   22792 H6        1123.1203 -1187.4513   382.3184 H6            1 RES     
   22793 H6        1124.0850 -1185.1710   384.1927 H6            1 RES     
   22794 H6        1122.4384 -1185.4464   383.5947 H6            1 RES     
   22795 H6        1124.8412 -1184.4715   381.9550 H6            1 RES     
   22796 H6        1123.4440 -1183.5454   382.4757 H6            1 RES     
   22797 H6        1123.3400 -1185.8802   380.4531 H6            1 RES     
   22798 H6        1123.3259 -1184.1307   380.0806 H6            1 RES     
   22799 H6        1121.1585 -1185.6293   381.6947 H6            1 RES     
   22800 H6        1121.1769 -1183.8579   381.3296 H6            1 RES     
   22801 H6        1121.1270 -1184.3757   378.8775 H6            1 RES     
   22802 H6        1119.7231 -1185.1040   379.7461 H6            1 RES     
   22803 H6        1121.1125 -1186.1462   379.2550 H6            1 RES     
   22804 H6        1125.5348 -1186.9592   384.9745 H6            1 RES     
   22805 H6        1126.4321 -1185.9594   383.7828 H6            1 RES     
   22806 H6        1126.9959 -1188.8406   384.8149 H6            1 RES     
   22807 H6        1127.9441 -1188.0234   383.5517 H6            1 RES     
   22808 H6        1128.5160 -1186.1627   385.0498 H6            1 RES     
   22809 H6        1127.5963 -1186.9225   386.4051 H6            1 RES     
   22810 H6        1129.1670 -1188.8774   386.3923 H6            1 RES     
   22811 H6        1129.9650 -1188.2204   384.9451 H6            1 RES     
   22812 H6        1130.5826 -1186.1108   386.2527 H6            1 RES     
   22813 H6        1129.8911 -1186.8981   387.7143 H6            1 RES     
   22814 H6        1131.6173 -1188.7488   387.4762 H6            1 RES     
   22815 H6        1132.3156 -1187.1030   387.7038 H6            1 RES     
   22816 H6        1132.7141 -1186.8922   385.2368 H6            1 RES     
   22817 H6        1132.1149 -1188.5782   384.9959 H6            1 RES     
   22818 H6        1134.5677 -1188.5162   385.0627 H6            1 RES     
   22819 H6        1134.5372 -1187.7659   386.7024 H6            1 RES     
   22820 H6        1133.9184 -1189.4537   386.4623 H6            1 RES     
   22821 C0        1128.3227 -1187.4660   380.9284 C0            1 RES     
   22822 C0        1129.4479 -1188.4249   381.4415 C0            1 RES     
   22823 C0        1130.4720 -1187.6364   382.3301 C0            1 RES     
   22824 C0        1131.5058 -1186.6699   381.7013 C0            1 RES     
   22825 C0        1130.9877 -1185.3501   381.0943 C0            1 RES     
   22826 C0        1130.1561 -1184.4576   382.0397 C0            1 RES     
   22827 C0        1130.9042 -1184.0253   383.3075 C0            1 RES     
   22828 C0        1130.0316 -1183.1050   384.1589 C0            1 RES     
   22829 C0        1130.2613 -1189.2141   380.3739 C0            1 RES     
   22830 C0        1129.4811 -1190.2850   379.6302 C0            1 RES     
   22831 C0        1130.3731 -1191.1446   378.7335 C0            1 RES     
   22832 C0        1129.5262 -1192.2299   378.0592 C0            1 RES     
   22833 C0        1130.3788 -1193.1247   377.1516 C0            1 RES     
   22834 C0        1129.5703 -1194.2654   376.5103 C0            1 RES     
   22835 C0        1128.4583 -1193.7668   375.5736 C0            1 RES     
   22836 C0        1127.7341 -1194.9344   374.9121 C0            1 RES     
   22837 H6        1128.7666 -1186.8861   380.1006 H6            1 RES     
   22838 H6        1128.1510 -1186.7145   381.7149 H6            1 RES     
   22839 H6        1128.9808 -1189.1644   382.1209 H6            1 RES     
   22840 H6        1131.0826 -1188.4119   382.8417 H6            1 RES     
   22841 H6        1129.9401 -1187.0756   383.1171 H6            1 RES     
   22842 H6        1132.1107 -1187.2071   380.9428 H6            1 RES     
   22843 H6        1132.2131 -1186.3936   382.5126 H6            1 RES     
   22844 H6        1130.3998 -1185.5574   380.1843 H6            1 RES     
   22845 H6        1131.8731 -1184.7679   380.7582 H6            1 RES     
   22846 H6        1129.2240 -1184.9674   382.3398 H6            1 RES     
   22847 H6        1129.8664 -1183.5477   381.4691 H6            1 RES     
   22848 H6        1131.1680 -1184.9135   383.9193 H6            1 RES     
   22849 H6        1131.8353 -1183.4869   383.0284 H6            1 RES     
   22850 H6        1129.7618 -1182.1909   383.5877 H6            1 RES     
   22851 H6        1130.5842 -1182.8033   385.0729 H6            1 RES     
   22852 H6        1129.1000 -1183.6290   384.4641 H6            1 RES     
   22853 H6        1131.0775 -1189.7488   380.9093 H6            1 RES     
   22854 H6        1130.7238 -1188.5163   379.6425 H6            1 RES     
   22855 H6        1129.0223 -1190.9598   380.3800 H6            1 RES     
   22856 H6        1128.7245 -1189.7963   378.9948 H6            1 RES     
   22857 H6        1130.8570 -1190.5057   377.9634 H6            1 RES     
   22858 H6        1131.1637 -1191.6295   379.3497 H6            1 RES     
   22859 H6        1129.0465 -1192.8600   378.8415 H6            1 RES     
   22860 H6        1128.7342 -1191.7301   377.4641 H6            1 RES     
   22861 H6        1130.8526 -1192.5102   376.3553 H6            1 RES     
   22862 H6        1131.1859 -1193.5842   377.7637 H6            1 RES     
   22863 H6        1129.1302 -1194.9017   377.3098 H6            1 RES     
   22864 H6        1130.2778 -1194.8889   375.9209 H6            1 RES     
   22865 H6        1128.8993 -1193.1225   374.7824 H6            1 RES     
   22866 H6        1127.7068 -1193.1790   376.1403 H6            1 RES     
   22867 H6        1126.9382 -1194.5455   374.2425 H6            1 RES     
   22868 H6        1128.4450 -1195.5371   374.3079 H6            1 RES     
   22869 H6        1127.2657 -1195.5834   375.6826 H6            1 RES     
   22870 C0        1125.5227 -1200.6154   383.7379 C0            1 RES     
   22871 C1        1125.7636 -1199.5114   382.7004 C1            1 RES     
   22872 C1        1126.0047 -1199.9945   381.4615 C1            1 RES     
   22873 S2        1126.2393 -1198.7785   380.3382 S2            1 RES     
   22874 C1        1126.0094 -1197.5520   381.5014 C1            1 RES     
   22875 C1        1125.7498 -1198.1163   382.7557 C1            1 RES     
   22876 C1        1125.9708 -1201.4107   381.5246 C1            1 RES     
   22877 C1        1125.7331 -1201.8155   382.8066 C1            1 RES     
   22878 C1        1125.7268 -1203.2079   382.9385 C1            1 RES     
   22879 C1        1125.9816 -1203.8458   381.6974 C1            1 RES     
   22880 S2        1126.1663 -1202.6750   380.4687 S2            1 RES     
   22881 H3        1125.5627 -1197.5451   383.6543 H3            1 RES     
   22882 H3        1125.5603 -1203.7089   383.8803 H3            1 RES     
   22883 N4        1126.1524 -1207.1144   379.8254 N4            1 RES     
   22884 C1        1125.9907 -1205.7907   380.1098 C1            1 RES     
   22885 C1        1126.1360 -1205.3008   381.4286 C1            1 RES     
   22886 C1        1126.4729 -1206.2344   382.4253 C1            1 RES     
   22887 N4        1126.6960 -1205.9258   383.7278 N4            1 RES     
   22888 S2        1127.0928 -1207.3904   384.3830 S2            1 RES     
   22889 N4        1127.0062 -1208.4305   383.1031 N4            1 RES     
   22890 C1        1126.6514 -1207.6061   382.0883 C1            1 RES     
   22891 C1        1126.4782 -1208.0290   380.7773 C1            1 RES     
   22892 H5        1125.7342 -1205.1243   379.2976 H5            1 RES     
   22893 C0        1124.0010 -1200.4371   384.1100 C0            1 RES     
   22894 C0        1123.0673 -1201.4035   384.9208 C0            1 RES     
   22895 C0        1121.5662 -1201.0809   384.5802 C0            1 RES     
   22896 C0        1120.8741 -1199.8256   385.1895 C0            1 RES     
   22897 C0        1121.3560 -1198.4211   384.7705 C0            1 RES     
   22898 C0        1121.3509 -1198.1395   383.2556 C0            1 RES     
   22899 C0        1119.9507 -1198.2078   382.6318 C0            1 RES     
   22900 C0        1120.0016 -1197.8645   381.1446 C0            1 RES     
   22901 C0        1123.2110 -1201.3989   386.4696 C0            1 RES     
   22902 C0        1124.2971 -1202.3105   387.0333 C0            1 RES     
   22903 C0        1124.4218 -1202.1254   388.5568 C0            1 RES     
   22904 C0        1125.5473 -1202.9858   389.1524 C0            1 RES     
   22905 C0        1125.8030 -1202.6049   390.6211 C0            1 RES     
   22906 C0        1127.0448 -1203.2815   391.2306 C0            1 RES     
   22907 C0        1128.3584 -1202.8020   390.5811 C0            1 RES     
   22908 C0        1129.5799 -1203.3942   391.2767 C0            1 RES     
   22909 H6        1123.9090 -1199.4299   384.5401 H6            1 RES     
   22910 H6        1123.5177 -1200.4240   383.1082 H6            1 RES     
   22911 H6        1123.2148 -1202.4344   384.5284 H6            1 RES     
   22912 H6        1120.9741 -1201.9418   384.9645 H6            1 RES     
   22913 H6        1121.4125 -1201.0910   383.4797 H6            1 RES     
   22914 H6        1120.9175 -1199.8833   386.2975 H6            1 RES     
   22915 H6        1119.7983 -1199.8961   384.9220 H6            1 RES     
   22916 H6        1122.3620 -1198.2304   385.1793 H6            1 RES     
   22917 H6        1120.7001 -1197.6721   385.2657 H6            1 RES     
   22918 H6        1122.0229 -1198.8417   382.7288 H6            1 RES     
   22919 H6        1121.7530 -1197.1136   383.1040 H6            1 RES     
   22920 H6        1119.5303 -1199.2292   382.7392 H6            1 RES     
   22921 H6        1119.2803 -1197.4843   383.1444 H6            1 RES     
   22922 H6        1120.4009 -1196.8382   380.9972 H6            1 RES     
   22923 H6        1118.9787 -1197.9124   380.7154 H6            1 RES     
   22924 H6        1120.6488 -1198.5879   380.6039 H6            1 RES     
   22925 H6        1122.2773 -1201.7982   386.9262 H6            1 RES     
   22926 H6        1123.3295 -1200.3474   386.8129 H6            1 RES     
   22927 H6        1124.0687 -1203.3702   386.7862 H6            1 RES     
   22928 H6        1125.2391 -1202.0486   386.5711 H6            1 RES     
   22929 H6        1124.6605 -1201.0539   388.7412 H6            1 RES     
   22930 H6        1123.4622 -1202.3653   389.0645 H6            1 RES     
   22931 H6        1125.3045 -1204.0667   389.0645 H6            1 RES     
   22932 H6        1126.4600 -1202.8082   388.5704 H6            1 RES     
   22933 H6        1125.9430 -1201.5045   390.7092 H6            1 RES     
   22934 H6        1124.9054 -1202.8831   391.2162 H6            1 RES     
   22935 H6        1126.9545 -1204.3862   391.1551 H6            1 RES     
   22936 H6        1127.0768 -1203.0058   392.3073 H6            1 RES     
   22937 H6        1128.4222 -1201.6931   390.6472 H6            1 RES     
   22938 H6        1128.4017 -1203.1012   389.5173 H6            1 RES     
   22939 H6        1130.5014 -1203.0201   390.7857 H6            1 RES     
   22940 H6        1129.6003 -1203.0933   392.3461 H6            1 RES     
   22941 H6        1129.5628 -1204.5037   391.2066 H6            1 RES     
   22942 C0        1126.5512 -1200.3568   384.9122 C0            1 RES     
   22943 C0        1127.5443 -1201.4181   385.4921 C0            1 RES     
   22944 C0        1127.8743 -1201.0935   386.9906 C0            1 RES     
   22945 C0        1128.8147 -1199.9238   387.3723 C0            1 RES     
   22946 C0        1128.3061 -1198.4843   387.1531 C0            1 RES     
   22947 C0        1126.9661 -1198.1350   387.8344 C0            1 RES     
   22948 C0        1126.9786 -1198.3059   389.3590 C0            1 RES     
   22949 C0        1125.6361 -1197.8902   389.9574 C0            1 RES     
   22950 C0        1128.8957 -1201.6204   384.7458 C0            1 RES     
   22951 C0        1128.7844 -1202.2568   383.3706 C0            1 RES     
   22952 C0        1130.1487 -1202.5974   382.7695 C0            1 RES     
   22953 C0        1129.9530 -1203.2795   381.4107 C0            1 RES     
   22954 C0        1131.2959 -1203.6474   380.7683 C0            1 RES     
   22955 C0        1131.1329 -1204.3930   379.4328 C0            1 RES     
   22956 C0        1130.4407 -1203.5502   378.3497 C0            1 RES     
   22957 C0        1130.3663 -1204.3087   377.0289 C0            1 RES     
   22958 H6        1127.1526 -1199.4553   384.7022 H6            1 RES     
   22959 H6        1125.8886 -1200.0463   385.7353 H6            1 RES     
   22960 H6        1127.0235 -1202.3953   385.5130 H6            1 RES     
   22961 H6        1128.3749 -1202.0023   387.3899 H6            1 RES     
   22962 H6        1126.9422 -1200.9615   387.5655 H6            1 RES     
   22963 H6        1129.7929 -1200.0459   386.8644 H6            1 RES     
   22964 H6        1129.0225 -1200.0281   388.4590 H6            1 RES     
   22965 H6        1128.2281 -1198.2711   386.0736 H6            1 RES     
   22966 H6        1129.0839 -1197.7930   387.5440 H6            1 RES     
   22967 H6        1126.1455 -1198.7466   387.4202 H6            1 RES     
   22968 H6        1126.7390 -1197.0724   387.5966 H6            1 RES     
   22969 H6        1127.1605 -1199.3684   389.6248 H6            1 RES     
   22970 H6        1127.7826 -1197.6783   389.8002 H6            1 RES     
   22971 H6        1125.4256 -1196.8230   389.7304 H6            1 RES     
   22972 H6        1125.6591 -1198.0219   391.0592 H6            1 RES     
   22973 H6        1124.8171 -1198.5167   389.5421 H6            1 RES     
   22974 H6        1129.5086 -1202.3206   385.3564 H6            1 RES     
   22975 H6        1129.4445 -1200.6570   384.6658 H6            1 RES     
   22976 H6        1128.2256 -1203.2080   383.4756 H6            1 RES     
   22977 H6        1128.2770 -1201.5509   382.6928 H6            1 RES     
   22978 H6        1130.7465 -1201.6684   382.6468 H6            1 RES     
   22979 H6        1130.6930 -1203.2903   383.4502 H6            1 RES     
   22980 H6        1129.3516 -1204.2060   381.5484 H6            1 RES     
   22981 H6        1129.3950 -1202.5828   380.7517 H6            1 RES     
   22982 H6        1131.9019 -1202.7286   380.6109 H6            1 RES     
   22983 H6        1131.8504 -1204.3154   381.4637 H6            1 RES     
   22984 H6        1130.5603 -1205.3319   379.6007 H6            1 RES     
   22985 H6        1132.1495 -1204.6662   379.0740 H6            1 RES     
   22986 H6        1131.0087 -1202.6079   378.1918 H6            1 RES     
   22987 H6        1129.4038 -1203.2996   378.6555 H6            1 RES     
   22988 H6        1129.8628 -1203.6773   376.2667 H6            1 RES     
   22989 H6        1131.3871 -1204.5566   376.6682 H6            1 RES     
   22990 H6        1129.7842 -1205.2465   377.1555 H6            1 RES     
   22991 C0        1126.0376 -1213.4155   380.6877 C0            1 RES     
   22992 C1        1126.4261 -1211.9564   380.4165 C1            1 RES     
   22993 C1        1127.2775 -1211.8215   379.3757 C1            1 RES     
   22994 S2        1127.6704 -1210.2240   379.0772 S2            1 RES     
   22995 C1        1126.6842 -1209.6616   380.3506 C1            1 RES     
   22996 C1        1126.0590 -1210.7379   380.9907 C1            1 RES     
   22997 C1        1127.5578 -1213.1135   378.8629 C1            1 RES     
   22998 C1        1126.9020 -1214.0596   379.5970 C1            1 RES     
   22999 C1        1127.1715 -1215.3609   379.1609 C1            1 RES     
   23000 C1        1128.0726 -1215.3626   378.0653 C1            1 RES     
   23001 S2        1128.4774 -1213.7589   377.6425 S2            1 RES     
   23002 H3        1125.3783 -1210.6392   381.8248 H3            1 RES     
   23003 H3        1126.7452 -1216.2372   379.6255 H3            1 RES     
   23004 N4        1129.7935 -1217.4265   375.4203 N4            1 RES     
   23005 C1        1129.2168 -1216.3786   376.0750 C1            1 RES     
   23006 C1        1128.6675 -1216.5348   377.3688 C1            1 RES     
   23007 C1        1128.7606 -1217.8102   377.9546 C1            1 RES     
   23008 N4        1128.3291 -1218.1190   379.2036 N4            1 RES     
   23009 S2        1128.7458 -1219.7121   379.3460 S2            1 RES     
   23010 N4        1129.4607 -1220.0627   377.8992 N4            1 RES     
   23011 C1        1129.3856 -1218.8768   377.2484 C1            1 RES     
   23012 C1        1129.8914 -1218.6650   375.9729 C1            1 RES     
   23013 H5        1129.1793 -1215.4230   375.5700 H5            1 RES     
   23014 C0        1124.5078 -1213.4595   380.3087 C0            1 RES     
   23015 C0        1123.5776 -1214.7091   380.1185 C0            1 RES     
   23016 C0        1122.3341 -1214.3017   379.2461 C0            1 RES     
   23017 C0        1121.1723 -1213.4738   379.8714 C0            1 RES     
   23018 C0        1121.4374 -1212.0210   380.3182 C0            1 RES     
   23019 C0        1122.0092 -1211.0850   379.2360 C0            1 RES     
   23020 C0        1121.0670 -1210.8958   378.0398 C0            1 RES     
   23021 C0        1121.6612 -1209.9161   377.0303 C0            1 RES     
   23022 C0        1123.0444 -1215.4020   381.4050 C0            1 RES     
   23023 C0        1123.9706 -1216.4450   382.0237 C0            1 RES     
   23024 C0        1123.3888 -1216.9661   383.3507 C0            1 RES     
   23025 C0        1124.3237 -1217.9769   384.0333 C0            1 RES     
   23026 C0        1123.8331 -1218.2955   385.4564 C0            1 RES     
   23027 C0        1124.8200 -1219.1461   386.2773 C0            1 RES     
   23028 C0        1126.1294 -1218.3948   386.5910 C0            1 RES     
   23029 C0        1127.0420 -1219.2095   387.5022 C0            1 RES     
   23030 H6        1124.0054 -1212.7580   380.9895 H6            1 RES     
   23031 H6        1124.5078 -1213.0059   379.2931 H6            1 RES     
   23032 H6        1124.1180 -1215.4475   379.4852 H6            1 RES     
   23033 H6        1121.8582 -1215.2566   378.9280 H6            1 RES     
   23034 H6        1122.6693 -1213.8166   378.3043 H6            1 RES     
   23035 H6        1120.7536 -1214.0253   380.7394 H6            1 RES     
   23036 H6        1120.3628 -1213.4402   379.1116 H6            1 RES     
   23037 H6        1122.0974 -1212.0130   381.2013 H6            1 RES     
   23038 H6        1120.4762 -1211.5921   380.6765 H6            1 RES     
   23039 H6        1122.9868 -1211.4576   378.8788 H6            1 RES     
   23040 H6        1122.1810 -1210.0926   379.7078 H6            1 RES     
   23041 H6        1120.8968 -1211.8646   377.5261 H6            1 RES     
   23042 H6        1120.0917 -1210.4978   378.3949 H6            1 RES     
   23043 H6        1121.8287 -1208.9253   377.5042 H6            1 RES     
   23044 H6        1120.9612 -1209.7881   376.1780 H6            1 RES     
   23045 H6        1122.6281 -1210.3018   376.6420 H6            1 RES     
   23046 H6        1122.1297 -1215.9859   381.1555 H6            1 RES     
   23047 H6        1122.7522 -1214.6171   382.1371 H6            1 RES     
   23048 H6        1124.1279 -1217.2833   381.3106 H6            1 RES     
   23049 H6        1124.9276 -1215.9810   382.2200 H6            1 RES     
   23050 H6        1123.2644 -1216.0887   384.0242 H6            1 RES     
   23051 H6        1122.3919 -1217.4315   383.1901 H6            1 RES     
   23052 H6        1124.4058 -1218.9064   383.4299 H6            1 RES     
   23053 H6        1125.3260 -1217.5345   384.0888 H6            1 RES     
   23054 H6        1123.6564 -1217.3510   386.0176 H6            1 RES     
   23055 H6        1122.8624 -1218.8332   385.3797 H6            1 RES     
   23056 H6        1125.0357 -1220.0990   385.7485 H6            1 RES     
   23057 H6        1124.3252 -1219.3864   387.2437 H6            1 RES     
   23058 H6        1125.8935 -1217.4346   387.1012 H6            1 RES     
   23059 H6        1126.6900 -1218.1796   385.6624 H6            1 RES     
   23060 H6        1127.9666 -1218.6329   387.7091 H6            1 RES     
   23061 H6        1126.5343 -1219.4243   388.4669 H6            1 RES     
   23062 H6        1127.3206 -1220.1675   387.0113 H6            1 RES     
   23063 C0        1126.3761 -1213.6924   382.2084 C0            1 RES     
   23064 C0        1127.2498 -1214.8782   382.7369 C0            1 RES     
   23065 C0        1126.8247 -1215.2589   384.1978 C0            1 RES     
   23066 C0        1127.2063 -1214.3671   385.4051 C0            1 RES     
   23067 C0        1126.5128 -1212.9962   385.5406 C0            1 RES     
   23068 C0        1124.9699 -1213.0234   385.5583 C0            1 RES     
   23069 C0        1124.3741 -1213.8649   386.6945 C0            1 RES     
   23070 C0        1122.8484 -1213.7955   386.6716 C0            1 RES     
   23071 C0        1128.7954 -1214.6903   382.7304 C0            1 RES     
   23072 C0        1129.4332 -1214.6384   381.3524 C0            1 RES     
   23073 C0        1130.9613 -1214.6392   381.4127 C0            1 RES     
   23074 C0        1131.5294 -1214.6374   379.9889 C0            1 RES     
   23075 C0        1133.0628 -1214.6443   379.9959 C0            1 RES     
   23076 C0        1133.6646 -1214.7088   378.5818 C0            1 RES     
   23077 C0        1133.3193 -1213.4834   377.7206 C0            1 RES     
   23078 C0        1133.9954 -1213.5642   376.3561 C0            1 RES     
   23079 H6        1126.7764 -1212.7799   382.6834 H6            1 RES     
   23080 H6        1125.3740 -1213.8030   382.6516 H6            1 RES     
   23081 H6        1127.0182 -1215.7709   382.1236 H6            1 RES     
   23082 H6        1127.3086 -1216.2384   384.4041 H6            1 RES     
   23083 H6        1125.7350 -1215.4225   384.2467 H6            1 RES     
   23084 H6        1128.3055 -1214.2240   385.4350 H6            1 RES     
   23085 H6        1126.9513 -1214.9468   386.3183 H6            1 RES     
   23086 H6        1126.8523 -1212.3197   384.7381 H6            1 RES     
   23087 H6        1126.8621 -1212.5388   386.4917 H6            1 RES     
   23088 H6        1124.5741 -1213.4002   384.5990 H6            1 RES     
   23089 H6        1124.6198 -1211.9736   385.6710 H6            1 RES     
   23090 H6        1124.6727 -1214.9282   386.5820 H6            1 RES     
   23091 H6        1124.7401 -1213.4865   387.6732 H6            1 RES     
   23092 H6        1122.5072 -1212.7461   386.8025 H6            1 RES     
   23093 H6        1122.4320 -1214.4106   387.4963 H6            1 RES     
   23094 H6        1122.4581 -1214.1850   385.7064 H6            1 RES     
   23095 H6        1129.2380 -1215.5768   383.2374 H6            1 RES     
   23096 H6        1129.0797 -1213.7826   383.3057 H6            1 RES     
   23097 H6        1129.1265 -1215.5468   380.7966 H6            1 RES     
   23098 H6        1129.1100 -1213.7141   380.8461 H6            1 RES     
   23099 H6        1131.3149 -1213.7417   381.9650 H6            1 RES     
   23100 H6        1131.3125 -1215.5523   381.9442 H6            1 RES     
   23101 H6        1131.1657 -1215.5395   379.4475 H6            1 RES     
   23102 H6        1131.1560 -1213.7309   379.4692 H6            1 RES     
   23103 H6        1133.4406 -1213.7400   380.5210 H6            1 RES     
   23104 H6        1133.4107 -1215.5417   380.5534 H6            1 RES     
   23105 H6        1133.3161 -1215.6350   378.0734 H6            1 RES     
   23106 H6        1134.7699 -1214.7670   378.6892 H6            1 RES     
   23107 H6        1133.6587 -1212.5589   378.2359 H6            1 RES     
   23108 H6        1132.2240 -1213.4219   377.5530 H6            1 RES     
   23109 H6        1133.7290 -1212.6680   375.7568 H6            1 RES     
   23110 H6        1135.0993 -1213.5988   376.4738 H6            1 RES     
   23111 H6        1133.6559 -1214.4708   375.8111 H6            1 RES     
   23112 C0        1130.8247 -1223.4374   373.6127 C0            1 RES     
   23113 C1        1130.9326 -1222.0049   374.1511 C1            1 RES     
   23114 C1        1132.0862 -1221.3944   373.8005 C1            1 RES     
   23115 S2        1132.1764 -1219.8261   374.3729 S2            1 RES     
   23116 C1        1130.6406 -1219.9231   375.1091 C1            1 RES     
   23117 C1        1130.0784 -1221.1865   374.8926 C1            1 RES     
   23118 C1        1132.8558 -1222.3082   373.0366 C1            1 RES     
   23119 C1        1132.1962 -1223.4987   372.9290 C1            1 RES     
   23120 C1        1132.9260 -1224.4556   372.2165 C1            1 RES     
   23121 C1        1134.1788 -1223.9411   371.7944 C1            1 RES     
   23122 S2        1134.3308 -1222.3107   372.2775 S2            1 RES     
   23123 H3        1129.1061 -1221.4911   375.2541 H3            1 RES     
   23124 H3        1132.5646 -1225.4568   372.0360 H3            1 RES     
   23125 N4        1137.2958 -1224.5461   369.7607 N4            1 RES     
   23126 C1        1136.2650 -1223.9209   370.3978 C1            1 RES     
   23127 C1        1135.2729 -1224.6578   371.0855 C1            1 RES     
   23128 C1        1135.4086 -1226.0578   371.0987 C1            1 RES     
   23129 N4        1134.5748 -1226.9077   371.7497 N4            1 RES     
   23130 S2        1135.2570 -1228.3831   371.4500 S2            1 RES     
   23131 N4        1136.5792 -1228.0250   370.5275 N4            1 RES     
   23132 C1        1136.5080 -1226.6751   370.4375 C1            1 RES     
   23133 C1        1137.4411 -1225.8980   369.7645 C1            1 RES     
   23134 H5        1136.2194 -1222.8414   370.3517 H5            1 RES     
   23135 C0        1129.6596 -1223.3402   372.5549 C0            1 RES     
   23136 C0        1129.2247 -1224.3895   371.4720 C0            1 RES     
   23137 C0        1128.4119 -1223.6601   370.3404 C0            1 RES     
   23138 C0        1126.9347 -1223.2312   370.5852 C0            1 RES     
   23139 C0        1126.6313 -1222.1319   371.6244 C0            1 RES     
   23140 C0        1127.3678 -1220.7949   371.4142 C0            1 RES     
   23141 C0        1127.0075 -1220.1068   370.0909 C0            1 RES     
   23142 C0        1127.7224 -1218.7632   369.9654 C0            1 RES     
   23143 C0        1128.3775 -1225.6013   371.9550 C0            1 RES     
   23144 C0        1129.1718 -1226.7898   372.4886 C0            1 RES     
   23145 C0        1128.2240 -1227.8678   373.0459 C0            1 RES     
   23146 C0        1128.9912 -1229.0564   373.6462 C0            1 RES     
   23147 C0        1128.0341 -1229.9952   374.4012 C0            1 RES     
   23148 C0        1128.7501 -1231.1023   375.1970 C0            1 RES     
   23149 C0        1129.5822 -1230.5444   376.3689 C0            1 RES     
   23150 C0        1130.1863 -1231.6620   377.2133 C0            1 RES     
   23151 H6        1128.7650 -1223.0340   373.1151 H6            1 RES     
   23152 H6        1129.9830 -1222.4764   371.9331 H6            1 RES     
   23153 H6        1130.1413 -1224.7491   370.9534 H6            1 RES     
   23154 H6        1128.3581 -1224.3786   369.4916 H6            1 RES     
   23155 H6        1128.9894 -1222.7941   369.9515 H6            1 RES     
   23156 H6        1126.3315 -1224.1250   370.8501 H6            1 RES     
   23157 H6        1126.5420 -1222.8762   369.6088 H6            1 RES     
   23158 H6        1126.8310 -1222.5090   372.6410 H6            1 RES     
   23159 H6        1125.5374 -1221.9335   371.6036 H6            1 RES     
   23160 H6        1128.4621 -1220.9433   371.4656 H6            1 RES     
   23161 H6        1127.0817 -1220.1195   372.2502 H6            1 RES     
   23162 H6        1127.3072 -1220.7422   369.2319 H6            1 RES     
   23163 H6        1125.9101 -1219.9348   370.0488 H6            1 RES     
   23164 H6        1127.4320 -1218.0902   370.8004 H6            1 RES     
   23165 H6        1127.4422 -1218.2797   369.0059 H6            1 RES     
   23166 H6        1128.8237 -1218.9095   369.9821 H6            1 RES     
   23167 H6        1127.8230 -1226.0299   371.0898 H6            1 RES     
   23168 H6        1127.6248 -1225.2391   372.6898 H6            1 RES     
   23169 H6        1129.8113 -1227.2112   371.6825 H6            1 RES     
   23170 H6        1129.8143 -1226.4431   373.2864 H6            1 RES     
   23171 H6        1127.6208 -1227.3929   373.8518 H6            1 RES     
   23172 H6        1127.5319 -1228.2329   372.2560 H6            1 RES     
   23173 H6        1129.5401 -1229.6104   372.8545 H6            1 RES     
   23174 H6        1129.7382 -1228.6642   374.3473 H6            1 RES     
   23175 H6        1127.4170 -1229.4109   375.1195 H6            1 RES     
   23176 H6        1127.3464 -1230.4621   373.6620 H6            1 RES     
   23177 H6        1129.3895 -1231.7079   374.5198 H6            1 RES     
   23178 H6        1127.9646 -1231.7648   375.6219 H6            1 RES     
   23179 H6        1128.9313 -1229.9243   377.0246 H6            1 RES     
   23180 H6        1130.4151 -1229.9198   375.9959 H6            1 RES     
   23181 H6        1130.7692 -1231.2203   378.0471 H6            1 RES     
   23182 H6        1129.3843 -1232.3013   377.6404 H6            1 RES     
   23183 H6        1130.8658 -1232.2878   376.5944 H6            1 RES     
   23184 C0        1130.5407 -1224.3642   374.8633 C0            1 RES     
   23185 C0        1131.3615 -1225.6405   375.2455 C0            1 RES     
   23186 C0        1130.4604 -1226.6503   376.0382 C0            1 RES     
   23187 C0        1130.0692 -1226.3923   377.5143 C0            1 RES     
   23188 C0        1129.0800 -1225.2471   377.8118 C0            1 RES     
   23189 C0        1127.7309 -1225.3146   377.0653 C0            1 RES     
   23190 C0        1126.9281 -1226.5922   377.3427 C0            1 RES     
   23191 C0        1125.5884 -1226.5549   376.6100 C0            1 RES     
   23192 C0        1132.6699 -1225.4347   376.0641 C0            1 RES     
   23193 C0        1133.7998 -1224.7507   375.3131 C0            1 RES     
   23194 C0        1135.1094 -1224.7439   376.1029 C0            1 RES     
   23195 C0        1136.2098 -1224.0854   375.2628 C0            1 RES     
   23196 C0        1137.5481 -1224.0597   376.0109 C0            1 RES     
   23197 C0        1138.6896 -1223.4641   375.1693 C0            1 RES     
   23198 C0        1138.4623 -1221.9900   374.7982 C0            1 RES     
   23199 C0        1139.6514 -1221.4295   374.0254 C0            1 RES     
   23200 H6        1130.4719 -1223.7562   375.7821 H6            1 RES     
   23201 H6        1129.5033 -1224.6860   374.6814 H6            1 RES     
   23202 H6        1131.6317 -1226.1644   374.3079 H6            1 RES     
   23203 H6        1131.0283 -1227.6058   376.0577 H6            1 RES     
   23204 H6        1129.5265 -1226.8431   375.4838 H6            1 RES     
   23205 H6        1130.9829 -1226.2532   378.1271 H6            1 RES     
   23206 H6        1129.5965 -1227.3280   377.8832 H6            1 RES     
   23207 H6        1129.5565 -1224.2732   377.6081 H6            1 RES     
   23208 H6        1128.8726 -1225.2614   378.9039 H6            1 RES     
   23209 H6        1127.8820 -1225.2257   375.9753 H6            1 RES     
   23210 H6        1127.1278 -1224.4375   377.3881 H6            1 RES     
   23211 H6        1127.4895 -1227.4827   376.9898 H6            1 RES     
   23212 H6        1126.7424 -1226.6890   378.4341 H6            1 RES     
   23213 H6        1124.9853 -1225.6862   376.9512 H6            1 RES     
   23214 H6        1125.0207 -1227.4857   376.8174 H6            1 RES     
   23215 H6        1125.7498 -1226.4746   375.5131 H6            1 RES     
   23216 H6        1133.0520 -1226.4443   376.3353 H6            1 RES     
   23217 H6        1132.4583 -1224.8791   377.0033 H6            1 RES     
   23218 H6        1133.9838 -1225.3164   374.3781 H6            1 RES     
   23219 H6        1133.5127 -1223.7051   375.1151 H6            1 RES     
   23220 H6        1134.9706 -1224.1853   377.0537 H6            1 RES     
   23221 H6        1135.4077 -1225.7904   376.3385 H6            1 RES     
   23222 H6        1136.3363 -1224.6532   374.3138 H6            1 RES     
   23223 H6        1135.8888 -1223.0507   375.0230 H6            1 RES     
   23224 H6        1137.4403 -1223.4823   376.9549 H6            1 RES     
   23225 H6        1137.8287 -1225.1041   376.2715 H6            1 RES     
   23226 H6        1138.8211 -1224.0680   374.2442 H6            1 RES     
   23227 H6        1139.6235 -1223.5393   375.7683 H6            1 RES     
   23228 H6        1138.3202 -1221.3909   375.7236 H6            1 RES     
   23229 H6        1137.5619 -1221.8843   374.1582 H6            1 RES     
   23230 H6        1139.4601 -1220.3655   373.7712 H6            1 RES     
   23231 H6        1140.5741 -1221.4883   374.6409 H6            1 RES     
   23232 H6        1139.8017 -1221.9992   373.0835 H6            1 RES     
   23233 C0        1140.3928 -1229.0645   366.5277 C0            1 RES     
   23234 C1        1139.9180 -1228.0283   367.5544 C1            1 RES     
   23235 C1        1140.9296 -1227.2991   368.0753 C1            1 RES     
   23236 S2        1140.3927 -1226.1575   369.1725 S2            1 RES     
   23237 C1        1138.7613 -1226.6120   368.9662 C1            1 RES     
   23238 C1        1138.6624 -1227.6534   368.0363 C1            1 RES     
   23239 C1        1142.1435 -1227.7508   367.4980 C1            1 RES     
   23240 C1        1141.8958 -1228.7787   366.6343 C1            1 RES     
   23241 C1        1143.0634 -1229.2930   366.0614 C1            1 RES     
   23242 C1        1144.2148 -1228.6149   366.5374 C1            1 RES     
   23243 S2        1143.7550 -1227.3762   367.6185 S2            1 RES     
   23244 H3        1137.7319 -1228.1107   367.7299 H3            1 RES     
   23245 H3        1143.0622 -1230.1124   365.3583 H3            1 RES     
   23246 N4        1147.9451 -1228.1635   366.2240 N4            1 RES     
   23247 C1        1146.6255 -1227.9176   366.4637 C1            1 RES     
   23248 C1        1145.6419 -1228.9083   366.2369 C1            1 RES     
   23249 C1        1146.0877 -1230.1595   365.7738 C1            1 RES     
   23250 N4        1145.2848 -1231.2307   365.5516 N4            1 RES     
   23251 S2        1146.3588 -1232.3951   365.0795 S2            1 RES     
   23252 N4        1147.8204 -1231.6285   365.1365 N4            1 RES     
   23253 C1        1147.4756 -1230.3858   365.5515 C1            1 RES     
   23254 C1        1148.3918 -1229.3673   365.7766 C1            1 RES     
   23255 H5        1146.3487 -1226.9353   366.8213 H5            1 RES     
   23256 C0        1139.8009 -1228.5261   365.1691 C0            1 RES     
   23257 C0        1140.1301 -1228.9820   363.7040 C0            1 RES     
   23258 C0        1139.7270 -1227.8385   362.7023 C0            1 RES     
   23259 C0        1138.2306 -1227.6005   362.3417 C0            1 RES     
   23260 C0        1137.2631 -1227.0972   363.4330 C0            1 RES     
   23261 C0        1137.6780 -1225.7932   364.1413 C0            1 RES     
   23262 C0        1137.7615 -1224.5895   363.1934 C0            1 RES     
   23263 C0        1138.1199 -1223.3184   363.9602 C0            1 RES     
   23264 C0        1139.4729 -1230.3002   363.2040 C0            1 RES     
   23265 C0        1140.2228 -1231.5830   363.5506 C0            1 RES     
   23266 C0        1139.4144 -1232.8179   363.1117 C0            1 RES     
   23267 C0        1140.1123 -1234.1316   363.4974 C0            1 RES     
   23268 C0        1139.1788 -1235.3319   363.2627 C0            1 RES     
   23269 C0        1139.7295 -1236.6625   363.8082 C0            1 RES     
   23270 C0        1139.8264 -1236.6761   365.3469 C0            1 RES     
   23271 C0        1140.2613 -1238.0406   365.8721 C0            1 RES     
   23272 H6        1138.7087 -1228.5269   365.2917 H6            1 RES     
   23273 H6        1140.1421 -1227.4674   365.1714 H6            1 RES     
   23274 H6        1141.2365 -1229.0472   363.6041 H6            1 RES     
   23275 H6        1140.2112 -1228.0965   361.7335 H6            1 RES     
   23276 H6        1140.1908 -1226.8773   363.0117 H6            1 RES     
   23277 H6        1137.8036 -1228.5310   361.9118 H6            1 RES     
   23278 H6        1138.2178 -1226.8514   361.5218 H6            1 RES     
   23279 H6        1137.0956 -1227.8885   364.1822 H6            1 RES     
   23280 H6        1136.2691 -1226.9358   362.9615 H6            1 RES     
   23281 H6        1138.6475 -1225.9237   364.6563 H6            1 RES     
   23282 H6        1136.9126 -1225.5755   364.9183 H6            1 RES     
   23283 H6        1138.5391 -1224.7608   362.4204 H6            1 RES     
   23284 H6        1136.7798 -1224.4421   362.6933 H6            1 RES     
   23285 H6        1137.3518 -1223.1026   364.7334 H6            1 RES     
   23286 H6        1138.1676 -1222.4598   363.2578 H6            1 RES     
   23287 H6        1139.1098 -1223.4312   364.4522 H6            1 RES     
   23288 H6        1139.4577 -1230.3038   362.0907 H6            1 RES     
   23289 H6        1138.4173 -1230.3267   363.5541 H6            1 RES     
   23290 H6        1141.2239 -1231.5797   363.0668 H6            1 RES     
   23291 H6        1140.3630 -1231.6200   364.6223 H6            1 RES     
   23292 H6        1138.4323 -1232.7726   363.6337 H6            1 RES     
   23293 H6        1139.2319 -1232.8020   362.0151 H6            1 RES     
   23294 H6        1141.0596 -1234.2550   362.9297 H6            1 RES     
   23295 H6        1140.3740 -1234.0818   364.5615 H6            1 RES     
   23296 H6        1138.1958 -1235.1498   363.7514 H6            1 RES     
   23297 H6        1139.0027 -1235.4296   362.1687 H6            1 RES     
   23298 H6        1140.7196 -1236.8817   363.3544 H6            1 RES     
   23299 H6        1139.0204 -1237.4633   363.5045 H6            1 RES     
   23300 H6        1138.8320 -1236.4345   365.7838 H6            1 RES     
   23301 H6        1140.5639 -1235.9314   365.6998 H6            1 RES     
   23302 H6        1140.3116 -1238.0105   366.9797 H6            1 RES     
   23303 H6        1139.5312 -1238.8221   365.5710 H6            1 RES     
   23304 H6        1141.2664 -1238.3032   365.4758 H6            1 RES     
   23305 C0        1139.8340 -1230.4629   367.0134 C0            1 RES     
   23306 C0        1140.6922 -1231.7550   367.2203 C0            1 RES     
   23307 C0        1139.8084 -1233.0344   367.0149 C0            1 RES     
   23308 C0        1138.7787 -1233.4808   368.0820 C0            1 RES     
   23309 C0        1137.5159 -1232.6167   368.2760 C0            1 RES     
   23310 C0        1136.6703 -1232.3702   367.0088 C0            1 RES     
   23311 C0        1136.1548 -1233.6531   366.3438 C0            1 RES     
   23312 C0        1135.2866 -1233.3190   365.1323 C0            1 RES     
   23313 C0        1141.4388 -1231.9118   368.5775 C0            1 RES     
   23314 C0        1142.5823 -1230.9366   368.8013 C0            1 RES     
   23315 C0        1143.3894 -1231.2576   370.0599 C0            1 RES     
   23316 C0        1144.5509 -1230.2656   370.1895 C0            1 RES     
   23317 C0        1145.3964 -1230.5504   371.4367 C0            1 RES     
   23318 C0        1146.6094 -1229.6127   371.5608 C0            1 RES     
   23319 C0        1146.2180 -1228.1357   371.7273 C0            1 RES     
   23320 C0        1147.4518 -1227.2593   371.9151 C0            1 RES     
   23321 H6        1139.2394 -1230.3379   367.9350 H6            1 RES     
   23322 H6        1139.0815 -1230.6913   366.2425 H6            1 RES     
   23323 H6        1141.4509 -1231.7920   366.4143 H6            1 RES     
   23324 H6        1140.5234 -1233.8822   366.9380 H6            1 RES     
   23325 H6        1139.2737 -1232.9769   366.0519 H6            1 RES     
   23326 H6        1139.2836 -1233.6130   369.0605 H6            1 RES     
   23327 H6        1138.4315 -1234.4926   367.7811 H6            1 RES     
   23328 H6        1137.7873 -1231.6454   368.7231 H6            1 RES     
   23329 H6        1136.8745 -1233.1281   369.0263 H6            1 RES     
   23330 H6        1137.2440 -1231.7946   366.2615 H6            1 RES     
   23331 H6        1135.7978 -1231.7479   367.3069 H6            1 RES     
   23332 H6        1137.0067 -1234.2747   365.9967 H6            1 RES     
   23333 H6        1135.5522 -1234.2372   367.0723 H6            1 RES     
   23334 H6        1134.4084 -1232.7126   365.4416 H6            1 RES     
   23335 H6        1134.9238 -1234.2558   364.6604 H6            1 RES     
   23336 H6        1135.8742 -1232.7477   364.3813 H6            1 RES     
   23337 H6        1141.8975 -1232.9259   368.5870 H6            1 RES     
   23338 H6        1140.7232 -1231.8459   369.4256 H6            1 RES     
   23339 H6        1143.2744 -1231.0139   367.9393 H6            1 RES     
   23340 H6        1142.1669 -1229.9213   368.9093 H6            1 RES     
   23341 H6        1142.7317 -1231.1928   370.9535 H6            1 RES     
   23342 H6        1143.7987 -1232.2905   369.9864 H6            1 RES     
   23343 H6        1145.1993 -1230.3398   369.2878 H6            1 RES     
   23344 H6        1144.1263 -1229.2419   370.2442 H6            1 RES     
   23345 H6        1144.7643 -1230.4649   372.3473 H6            1 RES     
   23346 H6        1145.7791 -1231.5930   371.3750 H6            1 RES     
   23347 H6        1147.2606 -1229.7298   370.6665 H6            1 RES     
   23348 H6        1147.1889 -1229.9293   372.4556 H6            1 RES     
   23349 H6        1145.5586 -1228.0233   372.6151 H6            1 RES     
   23350 H6        1145.6780 -1227.7726   370.8284 H6            1 RES     
   23351 H6        1147.1397 -1226.2001   372.0328 H6            1 RES     
   23352 H6        1148.0105 -1227.5691   372.8237 H6            1 RES     
   23353 H6        1148.1184 -1227.3380   371.0298 H6            1 RES     
   23354 C0        1153.0974 -1230.6596   363.4520 C0            1 RES     
   23355 C1        1152.0004 -1230.2107   364.4259 C1            1 RES     
   23356 C1        1152.4897 -1229.7731   365.6072 C1            1 RES     
   23357 S2        1151.2834 -1229.2636   366.6468 S2            1 RES     
   23358 C1        1150.0538 -1229.6128   365.5170 C1            1 RES     
   23359 C1        1150.6097 -1230.1231   364.3382 C1            1 RES     
   23360 C1        1153.9026 -1229.8871   365.5703 C1            1 RES     
   23361 C1        1154.2973 -1230.4187   364.3763 C1            1 RES     
   23362 C1        1155.6829 -1230.5915   364.2961 C1            1 RES     
   23363 C1        1156.3255 -1230.1758   365.4905 C1            1 RES     
   23364 S2        1155.1703 -1229.5707   366.5924 S2            1 RES     
   23365 H3        1150.0356 -1230.4135   363.4693 H3            1 RES     
   23366 H3        1156.1751 -1231.0042   363.4284 H3            1 RES     
   23367 N4        1159.6102 -1229.5465   367.2316 N4            1 RES     
   23368 C1        1158.2971 -1229.4658   366.8730 C1            1 RES     
   23369 C1        1157.7696 -1230.2690   365.8353 C1            1 RES     
   23370 C1        1158.6530 -1231.1649   365.2065 C1            1 RES     
   23371 N4        1158.3006 -1232.0380   364.2292 N4            1 RES     
   23372 S2        1159.7160 -1232.8381   363.9322 S2            1 RES     
   23373 N4        1160.7866 -1232.1470   364.9827 N4            1 RES     
   23374 C1        1160.0138 -1231.2346   365.6196 C1            1 RES     
   23375 C1        1160.4765 -1230.4073   366.6339 C1            1 RES     
   23376 H5        1157.6700 -1228.7580   367.3976 H5            1 RES     
   23377 C0        1153.0291 -1229.5787   362.3062 C0            1 RES     
   23378 C0        1154.0471 -1229.3151   361.1412 C0            1 RES     
   23379 C0        1153.8484 -1227.8518   360.6003 C0            1 RES     
   23380 C0        1152.6376 -1227.5107   359.6819 C0            1 RES     
   23381 C0        1151.2093 -1227.5775   360.2616 C0            1 RES     
   23382 C0        1150.9612 -1226.7256   361.5213 C0            1 RES     
   23383 C0        1151.1505 -1225.2218   361.2823 C0            1 RES     
   23384 C0        1150.8360 -1224.4271   362.5478 C0            1 RES     
   23385 C0        1153.9985 -1230.2794   359.9217 C0            1 RES     
   23386 C0        1154.8115 -1231.5628   360.0637 C0            1 RES     
   23387 C0        1154.5850 -1232.4838   358.8506 C0            1 RES     
   23388 C0        1155.3432 -1233.8136   358.9861 C0            1 RES     
   23389 C0        1154.9126 -1234.7990   357.8856 C0            1 RES     
   23390 C0        1155.4784 -1236.2195   358.0685 C0            1 RES     
   23391 C0        1154.9130 -1236.9252   359.3172 C0            1 RES     
   23392 C0        1155.3943 -1238.3694   359.4148 C0            1 RES     
   23393 H6        1152.0230 -1229.6597   361.8712 H6            1 RES     
   23394 H6        1153.0746 -1228.6280   362.8818 H6            1 RES     
   23395 H6        1155.0716 -1229.3028   361.5755 H6            1 RES     
   23396 H6        1154.7441 -1227.6327   359.9763 H6            1 RES     
   23397 H6        1153.8938 -1227.1241   361.4388 H6            1 RES     
   23398 H6        1152.6682 -1228.1557   358.7786 H6            1 RES     
   23399 H6        1152.7964 -1226.4723   359.3212 H6            1 RES     
   23400 H6        1150.9331 -1228.6257   360.4629 H6            1 RES     
   23401 H6        1150.5028 -1227.2430   359.4709 H6            1 RES     
   23402 H6        1151.6206 -1227.0528   362.3462 H6            1 RES     
   23403 H6        1149.9109 -1226.9004   361.8427 H6            1 RES     
   23404 H6        1152.1987 -1225.0073   360.9878 H6            1 RES     
   23405 H6        1150.4701 -1224.8867   360.4696 H6            1 RES     
   23406 H6        1149.7854 -1224.6018   362.8641 H6            1 RES     
   23407 H6        1150.9718 -1223.3428   362.3508 H6            1 RES     
   23408 H6        1151.5187 -1224.7276   363.3713 H6            1 RES     
   23409 H6        1154.4588 -1229.7795   359.0396 H6            1 RES     
   23410 H6        1152.9339 -1230.4854   359.6730 H6            1 RES     
   23411 H6        1155.8906 -1231.3182   360.1719 H6            1 RES     
   23412 H6        1154.4877 -1232.0772   360.9582 H6            1 RES     
   23413 H6        1153.4947 -1232.7019   358.8002 H6            1 RES     
   23414 H6        1154.8873 -1231.9779   357.9078 H6            1 RES     
   23415 H6        1156.4412 -1233.6453   358.9536 H6            1 RES     
   23416 H6        1155.1083 -1234.2445   359.9671 H6            1 RES     
   23417 H6        1153.8031 -1234.8801   357.8614 H6            1 RES     
   23418 H6        1155.2465 -1234.3955   356.9043 H6            1 RES     
   23419 H6        1156.5882 -1236.1872   358.1093 H6            1 RES     
   23420 H6        1155.1782 -1236.8124   357.1769 H6            1 RES     
   23421 H6        1153.8013 -1236.9301   359.2697 H6            1 RES     
   23422 H6        1155.2305 -1236.4040   360.2395 H6            1 RES     
   23423 H6        1154.9608 -1238.8423   360.3196 H6            1 RES     
   23424 H6        1155.0701 -1238.9467   358.5226 H6            1 RES     
   23425 H6        1156.5031 -1238.4014   359.4912 H6            1 RES     
   23426 C0        1152.7353 -1232.1388   363.0225 C0            1 RES     
   23427 C0        1153.7044 -1233.3649   363.1039 C0            1 RES     
   23428 C0        1153.3236 -1234.4329   362.0203 C0            1 RES     
   23429 C0        1152.0770 -1235.3369   362.1848 C0            1 RES     
   23430 C0        1150.6860 -1234.6831   362.0562 C0            1 RES     
   23431 C0        1150.4267 -1233.9095   360.7462 C0            1 RES     
   23432 C0        1150.5636 -1234.7645   359.4797 C0            1 RES     
   23433 C0        1150.2400 -1233.9386   358.2362 C0            1 RES     
   23434 C0        1153.8177 -1234.1013   364.4710 C0            1 RES     
   23435 C0        1154.4899 -1233.3069   365.5781 C0            1 RES     
   23436 C0        1154.7371 -1234.1439   366.8339 C0            1 RES     
   23437 C0        1155.4610 -1233.2914   367.8824 C0            1 RES     
   23438 C0        1155.7378 -1234.0900   369.1618 C0            1 RES     
   23439 C0        1156.5220 -1233.2824   370.2102 C0            1 RES     
   23440 C0        1155.7583 -1232.0497   370.7197 C0            1 RES     
   23441 C0        1156.5481 -1231.3250   371.8043 C0            1 RES     
   23442 H6        1151.7949 -1232.4576   363.5046 H6            1 RES     
   23443 H6        1152.4595 -1232.0110   361.9640 H6            1 RES     
   23444 H6        1154.7182 -1233.0160   362.8262 H6            1 RES     
   23445 H6        1154.1824 -1235.1377   361.9808 H6            1 RES     
   23446 H6        1153.2516 -1233.9583   361.0272 H6            1 RES     
   23447 H6        1152.1342 -1235.8858   363.1468 H6            1 RES     
   23448 H6        1152.1419 -1236.1110   361.3901 H6            1 RES     
   23449 H6        1150.5025 -1234.0130   362.9131 H6            1 RES     
   23450 H6        1149.9287 -1235.4930   362.1360 H6            1 RES     
   23451 H6        1151.1083 -1233.0453   360.6607 H6            1 RES     
   23452 H6        1149.3900 -1233.5094   360.7958 H6            1 RES     
   23453 H6        1151.6030 -1235.1422   359.3819 H6            1 RES     
   23454 H6        1149.8667 -1235.6284   359.5332 H6            1 RES     
   23455 H6        1149.1973 -1233.5578   358.2857 H6            1 RES     
   23456 H6        1150.3461 -1234.5687   357.3287 H6            1 RES     
   23457 H6        1150.9364 -1233.0762   358.1529 H6            1 RES     
   23458 H6        1154.4555 -1234.9993   364.3106 H6            1 RES     
   23459 H6        1152.8168 -1234.4424   364.8138 H6            1 RES     
   23460 H6        1155.4789 -1232.9702   365.2085 H6            1 RES     
   23461 H6        1153.8398 -1232.4599   365.8523 H6            1 RES     
   23462 H6        1153.7676 -1234.5052   367.2402 H6            1 RES     
   23463 H6        1155.3713 -1235.0222   366.5772 H6            1 RES     
   23464 H6        1156.4279 -1232.9351   367.4616 H6            1 RES     
   23465 H6        1154.8235 -1232.4131   368.1134 H6            1 RES     
   23466 H6        1154.7786 -1234.4400   369.6018 H6            1 RES     
   23467 H6        1156.3462 -1234.9830   368.8977 H6            1 RES     
   23468 H6        1157.4984 -1232.9675   369.7799 H6            1 RES     
   23469 H6        1156.7236 -1233.9561   371.0716 H6            1 RES     
   23470 H6        1154.7786 -1232.3660   371.1389 H6            1 RES     
   23471 H6        1155.5818 -1231.3318   369.8921 H6            1 RES     
   23472 H6        1155.9738 -1230.4410   372.1531 H6            1 RES     
   23473 H6        1156.7242 -1231.9993   372.6692 H6            1 RES     
   23474 H6        1157.5251 -1230.9796   371.4036 H6            1 RES     
   23475 C0        1165.8817 -1230.4009   366.5995 C0            1 RES     
   23476 C1        1164.4031 -1230.4662   367.0032 C1            1 RES     
   23477 C1        1164.2250 -1230.5989   368.3363 C1            1 RES     
   23478 S2        1162.6087 -1230.6424   368.7618 S2            1 RES     
   23479 C1        1162.0972 -1230.4708   367.1434 C1            1 RES     
   23480 C1        1163.2045 -1230.3801   366.2923 C1            1 RES     
   23481 C1        1165.5022 -1230.6516   368.9501 C1            1 RES     
   23482 C1        1166.4803 -1230.5767   368.0005 C1            1 RES     
   23483 C1        1167.7659 -1230.6629   368.5445 C1            1 RES     
   23484 C1        1167.7214 -1230.8177   369.9539 C1            1 RES     
   23485 S2        1166.1006 -1230.8028   370.4899 S2            1 RES     
   23486 H3        1163.1409 -1230.2592   365.2198 H3            1 RES     
   23487 H3        1168.6624 -1230.6273   367.9440 H3            1 RES     
   23488 N4        1169.7023 -1230.9689   373.1586 N4            1 RES     
   23489 C1        1168.6882 -1230.7648   372.2702 C1            1 RES     
   23490 C1        1168.8589 -1231.0238   370.8903 C1            1 RES     
   23491 C1        1170.1105 -1231.5181   370.4812 C1            1 RES     
   23492 N4        1170.4250 -1231.8626   369.2069 N4            1 RES     
   23493 S2        1171.9779 -1232.4094   369.3534 S2            1 RES     
   23494 N4        1172.3030 -1232.2438   370.9641 N4            1 RES     
   23495 C1        1171.1405 -1231.7359   371.4397 C1            1 RES     
   23496 C1        1170.9176 -1231.4464   372.7790 C1            1 RES     
   23497 H5        1167.7494 -1230.3852   372.6496 H5            1 RES     
   23498 C0        1166.0515 -1228.9206   366.0841 C0            1 RES     
   23499 C0        1167.3729 -1228.1356   365.7667 C0            1 RES     
   23500 C0        1167.0811 -1226.5908   365.8097 C0            1 RES     
   23501 C0        1166.3322 -1225.8990   364.6323 C0            1 RES     
   23502 C0        1164.8541 -1226.2533   364.3671 C0            1 RES     
   23503 C0        1163.9000 -1226.0691   365.5629 C0            1 RES     
   23504 C0        1163.8095 -1224.6158   366.0469 C0            1 RES     
   23505 C0        1162.8085 -1224.4866   367.1930 C0            1 RES     
   23506 C0        1168.0773 -1228.4450   364.4148 C0            1 RES     
   23507 C0        1169.0324 -1229.6350   364.4267 C0            1 RES     
   23508 C0        1169.5685 -1229.9127   363.0102 C0            1 RES     
   23509 C0        1170.4894 -1231.1424   362.9725 C0            1 RES     
   23510 C0        1170.8146 -1231.5332   361.5203 C0            1 RES     
   23511 C0        1171.5689 -1232.8696   361.3913 C0            1 RES     
   23512 C0        1170.7125 -1234.0764   361.8241 C0            1 RES     
   23513 C0        1171.4349 -1235.3971   361.5780 C0            1 RES     
   23514 H6        1165.3765 -1228.8191   365.2227 H6            1 RES     
   23515 H6        1165.6209 -1228.3322   366.9240 H6            1 RES     
   23516 H6        1168.0806 -1228.2976   366.6099 H6            1 RES     
   23517 H6        1168.0764 -1226.0928   365.8400 H6            1 RES     
   23518 H6        1166.5918 -1226.3201   366.7699 H6            1 RES     
   23519 H6        1166.8957 -1226.0649   363.6900 H6            1 RES     
   23520 H6        1166.3772 -1224.8064   364.8267 H6            1 RES     
   23521 H6        1164.7764 -1227.2852   363.9867 H6            1 RES     
   23522 H6        1164.4931 -1225.6136   363.5323 H6            1 RES     
   23523 H6        1164.2036 -1226.7187   366.4043 H6            1 RES     
   23524 H6        1162.8875 -1226.3942   365.2371 H6            1 RES     
   23525 H6        1164.7992 -1224.2674   366.4081 H6            1 RES     
   23526 H6        1163.4804 -1223.9651   365.2079 H6            1 RES     
   23527 H6        1161.7979 -1224.8095   366.8631 H6            1 RES     
   23528 H6        1162.7530 -1223.4277   367.5223 H6            1 RES     
   23529 H6        1163.1267 -1225.1113   368.0549 H6            1 RES     
   23530 H6        1168.7351 -1227.5899   364.1393 H6            1 RES     
   23531 H6        1167.3018 -1228.5406   363.6230 H6            1 RES     
   23532 H6        1169.8711 -1229.4412   365.1304 H6            1 RES     
   23533 H6        1168.4920 -1230.5055   364.7728 H6            1 RES     
   23534 H6        1168.6891 -1230.1093   362.3567 H6            1 RES     
   23535 H6        1170.1126 -1229.0284   362.6126 H6            1 RES     
   23536 H6        1171.4225 -1230.9526   363.5455 H6            1 RES     
   23537 H6        1169.9701 -1231.9756   363.4618 H6            1 RES     
   23538 H6        1169.8748 -1231.6199   360.9308 H6            1 RES     
   23539 H6        1171.4270 -1230.7221   361.0684 H6            1 RES     
   23540 H6        1172.5134 -1232.8338   361.9751 H6            1 RES     
   23541 H6        1171.8261 -1233.0019   360.3176 H6            1 RES     
   23542 H6        1169.7626 -1234.0846   361.2446 H6            1 RES     
   23543 H6        1170.4745 -1234.0215   362.9027 H6            1 RES     
   23544 H6        1170.7844 -1236.2379   361.8948 H6            1 RES     
   23545 H6        1171.6676 -1235.5158   360.4981 H6            1 RES     
   23546 H6        1172.3787 -1235.4349   362.1645 H6            1 RES     
   23547 C0        1166.0993 -1231.5339   365.5166 C0            1 RES     
   23548 C0        1167.2027 -1232.6418   365.5790 C0            1 RES     
   23549 C0        1167.5839 -1233.1127   364.1323 C0            1 RES     
   23550 C0        1166.6399 -1234.0217   363.3071 C0            1 RES     
   23551 C0        1165.3239 -1233.4123   362.7821 C0            1 RES     
   23552 C0        1165.4696 -1232.1361   361.9267 C0            1 RES     
   23553 C0        1166.3301 -1232.3226   360.6703 C0            1 RES     
   23554 C0        1166.3791 -1231.0313   359.8559 C0            1 RES     
   23555 C0        1166.8964 -1233.9141   366.4226 C0            1 RES     
   23556 C0        1166.8248 -1233.6910   367.9238 C0            1 RES     
   23557 C0        1166.7065 -1234.9995   368.7064 C0            1 RES     
   23558 C0        1166.6912 -1234.6970   370.2092 C0            1 RES     
   23559 C0        1166.5797 -1235.9813   371.0396 C0            1 RES     
   23560 C0        1166.6277 -1235.7174   372.5542 C0            1 RES     
   23561 C0        1165.4512 -1234.8661   373.0578 C0            1 RES     
   23562 C0        1165.5085 -1234.6924   374.5717 C0            1 RES     
   23563 H6        1165.1488 -1232.0576   365.3148 H6            1 RES     
   23564 H6        1166.2773 -1230.9476   364.6015 H6            1 RES     
   23565 H6        1168.1235 -1232.1820   365.9883 H6            1 RES     
   23566 H6        1168.5186 -1233.7037   364.2471 H6            1 RES     
   23567 H6        1167.8299 -1232.2422   363.5012 H6            1 RES     
   23568 H6        1166.4119 -1234.9447   363.8779 H6            1 RES     
   23569 H6        1167.2180 -1234.3510   362.4170 H6            1 RES     
   23570 H6        1164.6405 -1233.2065   363.6233 H6            1 RES     
   23571 H6        1164.8209 -1234.1877   362.1645 H6            1 RES     
   23572 H6        1165.8960 -1231.3113   362.5239 H6            1 RES     
   23573 H6        1164.4477 -1231.8254   361.6159 H6            1 RES     
   23574 H6        1167.3695 -1232.5915   360.9532 H6            1 RES     
   23575 H6        1165.9039 -1233.1330   360.0406 H6            1 RES     
   23576 H6        1165.3566 -1230.7379   359.5346 H6            1 RES     
   23577 H6        1167.0068 -1231.1803   358.9528 H6            1 RES     
   23578 H6        1166.8179 -1230.2088   360.4613 H6            1 RES     
   23579 H6        1167.7351 -1234.6276   366.2606 H6            1 RES     
   23580 H6        1165.9575 -1234.3960   366.0736 H6            1 RES     
   23581 H6        1167.7657 -1233.2011   368.2443 H6            1 RES     
   23582 H6        1165.9392 -1233.0746   368.1493 H6            1 RES     
   23583 H6        1165.7729 -1235.5275   368.4147 H6            1 RES     
   23584 H6        1167.5784 -1235.6521   368.4748 H6            1 RES     
   23585 H6        1167.6299 -1234.1669   370.4864 H6            1 RES     
   23586 H6        1165.8274 -1234.0329   370.4191 H6            1 RES     
   23587 H6        1165.6381 -1236.5142   370.7837 H6            1 RES     
   23588 H6        1167.4356 -1236.6442   370.7839 H6            1 RES     
   23589 H6        1167.5886 -1235.2198   372.8127 H6            1 RES     
   23590 H6        1166.5982 -1236.7030   373.0683 H6            1 RES     
   23591 H6        1164.4925 -1235.3600   372.7886 H6            1 RES     
   23592 H6        1165.4778 -1233.8558   372.5995 H6            1 RES     
   23593 H6        1164.6485 -1234.0750   374.9068 H6            1 RES     
   23594 H6        1165.4554 -1235.6807   375.0758 H6            1 RES     
   23595 H6        1166.4501 -1234.1809   374.8653 H6            1 RES     
   23596 C0        1175.6528 -1231.3018   375.3815 C0            1 RES     
   23597 C1        1174.2052 -1231.5763   374.9544 C1            1 RES     
   23598 C1        1173.5152 -1232.3015   375.8624 C1            1 RES     
   23599 S2        1171.9328 -1232.5696   375.3939 S2            1 RES     
   23600 C1        1172.1322 -1231.6964   373.9419 C1            1 RES     
   23601 C1        1173.4395 -1231.2054   373.8474 C1            1 RES     
   23602 C1        1174.3830 -1232.5969   376.9443 C1            1 RES     
   23603 C1        1175.6228 -1232.0784   376.7036 C1            1 RES     
   23604 C1        1176.5355 -1232.3718   377.7220 C1            1 RES     
   23605 C1        1175.9351 -1233.1482   378.7462 C1            1 RES     
   23606 S2        1174.2880 -1233.4143   378.3846 S2            1 RES     
   23607 H3        1173.8104 -1230.6141   373.0218 H3            1 RES     
   23608 H3        1177.5652 -1232.0481   377.7004 H3            1 RES     
   23609 N4        1176.3411 -1234.6870   382.1644 N4            1 RES     
   23610 C1        1175.7838 -1234.1264   381.0534 C1            1 RES     
   23611 C1        1176.5802 -1233.7294   379.9542 C1            1 RES     
   23612 C1        1177.9649 -1233.9566   380.0511 C1            1 RES     
   23613 N4        1178.8626 -1233.6804   379.0716 N4            1 RES     
   23614 S2        1180.2870 -1234.1987   379.7306 S2            1 RES     
   23615 N4        1179.8478 -1234.7720   381.2158 N4            1 RES     
   23616 C1        1178.5096 -1234.5607   381.2196 C1            1 RES     
   23617 C1        1177.6774 -1234.9133   382.2734 C1            1 RES     
   23618 H5        1174.7123 -1233.9809   381.0410 H5            1 RES     
   23619 C0        1175.6682 -1229.7449   375.6302 C0            1 RES     
   23620 C0        1176.7708 -1228.8713   376.3260 C0            1 RES     
   23621 C0        1176.1304 -1227.5200   376.8133 C0            1 RES     
   23622 C0        1175.8116 -1226.3879   375.7923 C0            1 RES     
   23623 C0        1174.7171 -1226.6176   374.7294 C0            1 RES     
   23624 C0        1173.3320 -1227.0158   375.2746 C0            1 RES     
   23625 C0        1172.7020 -1225.9410   376.1703 C0            1 RES     
   23626 C0        1171.3103 -1226.3669   376.6326 C0            1 RES     
   23627 C0        1178.0337 -1228.5197   375.4888 C0            1 RES     
   23628 C0        1179.1459 -1229.5644   375.5037 C0            1 RES     
   23629 C0        1180.2816 -1229.1593   374.5461 C0            1 RES     
   23630 C0        1181.3945 -1230.2176   374.4903 C0            1 RES     
   23631 C0        1182.3880 -1229.9019   373.3586 C0            1 RES     
   23632 C0        1183.4194 -1231.0179   373.1090 C0            1 RES     
   23633 C0        1182.7743 -1232.3092   372.5672 C0            1 RES     
   23634 C0        1183.8238 -1233.3590   372.2163 C0            1 RES     
   23635 H6        1175.4201 -1229.2803   374.6656 H6            1 RES     
   23636 H6        1174.7955 -1229.6099   376.3066 H6            1 RES     
   23637 H6        1177.0696 -1229.3809   377.2690 H6            1 RES     
   23638 H6        1176.8688 -1227.0670   377.5127 H6            1 RES     
   23639 H6        1175.2309 -1227.7240   377.4330 H6            1 RES     
   23640 H6        1176.7434 -1226.0968   375.2632 H6            1 RES     
   23641 H6        1175.5087 -1225.5005   376.3877 H6            1 RES     
   23642 H6        1175.0559 -1227.3674   373.9956 H6            1 RES     
   23643 H6        1174.6040 -1225.6780   374.1456 H6            1 RES     
   23644 H6        1173.3945 -1227.9686   375.8319 H6            1 RES     
   23645 H6        1172.6631 -1227.1815   374.4017 H6            1 RES     
   23646 H6        1173.3306 -1225.7711   377.0689 H6            1 RES     
   23647 H6        1172.6160 -1224.9889   375.6031 H6            1 RES     
   23648 H6        1170.6441 -1226.5287   375.7583 H6            1 RES     
   23649 H6        1170.8703 -1225.5730   377.2720 H6            1 RES     
   23650 H6        1171.3708 -1227.3065   377.2226 H6            1 RES     
   23651 H6        1178.5221 -1227.6177   375.9219 H6            1 RES     
   23652 H6        1177.7151 -1228.2646   374.4539 H6            1 RES     
   23653 H6        1179.5338 -1229.6906   376.5380 H6            1 RES     
   23654 H6        1178.7337 -1230.5094   375.1770 H6            1 RES     
   23655 H6        1179.8375 -1229.0591   373.5303 H6            1 RES     
   23656 H6        1180.7156 -1228.1786   374.8394 H6            1 RES     
   23657 H6        1181.9213 -1230.2862   375.4664 H6            1 RES     
   23658 H6        1180.9310 -1231.1936   374.3006 H6            1 RES     
   23659 H6        1181.8378 -1229.7341   372.4061 H6            1 RES     
   23660 H6        1182.9221 -1228.9604   373.6143 H6            1 RES     
   23661 H6        1183.9882 -1231.2285   374.0398 H6            1 RES     
   23662 H6        1184.1314 -1230.6445   372.3408 H6            1 RES     
   23663 H6        1182.1924 -1232.0762   371.6479 H6            1 RES     
   23664 H6        1182.0954 -1232.7534   373.3187 H6            1 RES     
   23665 H6        1183.3209 -1234.2667   371.8247 H6            1 RES     
   23666 H6        1184.5138 -1232.9712   371.4366 H6            1 RES     
   23667 H6        1184.4084 -1233.6364   373.1205 H6            1 RES     
   23668 C0        1176.5720 -1231.8173   374.2013 C0            1 RES     
   23669 C0        1177.7729 -1232.8081   374.3595 C0            1 RES     
   23670 C0        1178.8320 -1232.5652   373.2286 C0            1 RES     
   23671 C0        1178.5737 -1233.0240   371.7722 C0            1 RES     
   23672 C0        1177.5020 -1232.2733   370.9556 C0            1 RES     
   23673 C0        1177.6891 -1230.7453   370.8472 C0            1 RES     
   23674 C0        1179.0187 -1230.3237   370.2081 C0            1 RES     
   23675 C0        1179.1003 -1228.8030   370.0907 C0            1 RES     
   23676 C0        1177.4495 -1234.3310   374.3821 C0            1 RES     
   23677 C0        1176.6965 -1234.8126   375.6108 C0            1 RES     
   23678 C0        1176.5720 -1236.3359   375.6629 C0            1 RES     
   23679 C0        1175.8487 -1236.7461   376.9508 C0            1 RES     
   23680 C0        1175.7040 -1238.2692   377.0530 C0            1 RES     
   23681 C0        1175.0402 -1238.7177   378.3662 C0            1 RES     
   23682 C0        1173.5962 -1238.2133   378.5174 C0            1 RES     
   23683 C0        1172.9622 -1238.7417   379.7997 C0            1 RES     
   23684 H6        1175.9518 -1232.2147   373.3792 H6            1 RES     
   23685 H6        1176.9767 -1230.8767   373.7959 H6            1 RES     
   23686 H6        1178.2942 -1232.5623   375.3053 H6            1 RES     
   23687 H6        1179.7403 -1233.1227   373.5451 H6            1 RES     
   23688 H6        1179.1080 -1231.4979   373.1885 H6            1 RES     
   23689 H6        1178.3515 -1234.1103   371.7534 H6            1 RES     
   23690 H6        1179.5349 -1232.9019   371.2280 H6            1 RES     
   23691 H6        1176.4989 -1232.4858   371.3625 H6            1 RES     
   23692 H6        1177.5090 -1232.6969   369.9278 H6            1 RES     
   23693 H6        1177.6121 -1230.2702   371.8408 H6            1 RES     
   23694 H6        1176.8545 -1230.3510   370.2265 H6            1 RES     
   23695 H6        1179.8705 -1230.6677   370.8315 H6            1 RES     
   23696 H6        1179.1063 -1230.7713   369.1947 H6            1 RES     
   23697 H6        1178.2736 -1228.4195   369.4548 H6            1 RES     
   23698 H6        1180.0675 -1228.5131   369.6300 H6            1 RES     
   23699 H6        1179.0311 -1228.3334   371.0959 H6            1 RES     
   23700 H6        1178.4206 -1234.8748   374.3877 H6            1 RES     
   23701 H6        1176.8919 -1234.6243   373.4663 H6            1 RES     
   23702 H6        1177.2661 -1234.4992   376.5083 H6            1 RES     
   23703 H6        1175.6806 -1234.3852   375.5947 H6            1 RES     
   23704 H6        1176.0057 -1236.6960   374.7769 H6            1 RES     
   23705 H6        1177.5871 -1236.7931   375.6535 H6            1 RES     
   23706 H6        1176.4251 -1236.3774   377.8288 H6            1 RES     
   23707 H6        1174.8471 -1236.2685   376.9515 H6            1 RES     
   23708 H6        1175.1167 -1238.6501   376.1893 H6            1 RES     
   23709 H6        1176.7178 -1238.7252   377.0130 H6            1 RES     
   23710 H6        1175.6516 -1238.3690   379.2277 H6            1 RES     
   23711 H6        1175.0304 -1239.8297   378.3752 H6            1 RES     
   23712 H6        1172.9903 -1238.5538   377.6499 H6            1 RES     
   23713 H6        1173.5739 -1237.1046   378.5602 H6            1 RES     
   23714 H6        1171.9219 -1238.3624   379.8825 H6            1 RES     
   23715 H6        1172.9367 -1239.8520   379.7885 H6            1 RES     
   23716 H6        1173.5386 -1238.3969   380.6847 H6            1 RES     
   23717 C0        1180.6751 -1235.8531   386.6720 C0            1 RES     
   23718 C1        1179.6569 -1235.9378   385.5275 C1            1 RES     
   23719 C1        1178.8410 -1237.0108   385.6249 C1            1 RES     
   23720 S2        1177.7212 -1237.0740   384.3850 S2            1 RES     
   23721 C1        1178.3043 -1235.6344   383.6795 C1            1 RES     
   23722 C1        1179.3697 -1235.1240   384.4300 C1            1 RES     
   23723 C1        1179.2100 -1237.7436   386.7815 C1            1 RES     
   23724 C1        1180.2721 -1237.1441   387.3951 C1            1 RES     
   23725 C1        1180.7069 -1237.8454   388.5244 C1            1 RES     
   23726 C1        1179.9320 -1239.0145   388.7368 C1            1 RES     
   23727 S2        1178.7098 -1239.1259   387.5501 S2            1 RES     
   23728 H3        1179.9038 -1234.2150   384.1906 H3            1 RES     
   23729 H3        1181.5387 -1237.5235   389.1327 H3            1 RES     
   23730 N4        1179.2012 -1241.9230   391.0223 N4            1 RES     
   23731 C1        1179.0528 -1240.9334   390.0960 C1            1 RES     
   23732 C1        1180.1209 -1240.0642   389.7739 C1            1 RES     
   23733 C1        1181.3436 -1240.2790   390.4354 C1            1 RES     
   23734 N4        1182.4780 -1239.5693   390.2098 N4            1 RES     
   23735 S2        1183.5659 -1240.2970   391.2192 S2            1 RES     
   23736 N4        1182.6879 -1241.4897   391.9498 N4            1 RES     
   23737 C1        1181.4669 -1241.3336   391.3838 C1            1 RES     
   23738 C1        1180.3762 -1242.1435   391.6701 C1            1 RES     
   23739 H5        1178.0874 -1240.8226   389.6216 H5            1 RES     
   23740 C0        1180.2129 -1234.5771   387.4745 C0            1 RES     
   23741 C0        1180.6731 -1234.0876   388.8928 C0            1 RES     
   23742 C0        1179.5856 -1233.1178   389.4845 C0            1 RES     
   23743 C0        1179.4714 -1231.6539   388.9649 C0            1 RES     
   23744 C0        1179.0210 -1231.4031   387.5107 C0            1 RES     
   23745 C0        1177.6742 -1232.0363   387.1118 C0            1 RES     
   23746 C0        1176.4881 -1231.4974   387.9224 C0            1 RES     
   23747 C0        1175.1771 -1232.1180   387.4444 C0            1 RES     
   23748 C0        1182.0483 -1233.3667   388.9853 C0            1 RES     
   23749 C0        1183.2619 -1234.2795   389.1350 C0            1 RES     
   23750 C0        1184.5644 -1233.4594   389.0920 C0            1 RES     
   23751 C0        1185.8119 -1234.3524   389.1812 C0            1 RES     
   23752 C0        1187.0853 -1233.5365   388.8981 C0            1 RES     
   23753 C0        1188.3576 -1234.3951   388.7736 C0            1 RES     
   23754 C0        1188.3310 -1235.3162   387.5374 C0            1 RES     
   23755 C0        1189.6464 -1236.0696   387.3676 C0            1 RES     
   23756 H6        1180.2952 -1233.7323   386.7763 H6            1 RES     
   23757 H6        1179.1312 -1234.7825   387.6328 H6            1 RES     
   23758 H6        1180.6549 -1234.9616   389.5813 H6            1 RES     
   23759 H6        1179.8261 -1233.0132   390.5665 H6            1 RES     
   23760 H6        1178.5851 -1233.6004   389.4548 H6            1 RES     
   23761 H6        1180.4409 -1231.1338   389.1149 H6            1 RES     
   23762 H6        1178.7431 -1231.1389   389.6268 H6            1 RES     
   23763 H6        1179.8068 -1231.7321   386.8109 H6            1 RES     
   23764 H6        1178.9468 -1230.3039   387.3599 H6            1 RES     
   23765 H6        1177.7186 -1233.1364   387.2120 H6            1 RES     
   23766 H6        1177.4997 -1231.8046   386.0381 H6            1 RES     
   23767 H6        1176.6153 -1231.7379   388.9982 H6            1 RES     
   23768 H6        1176.4274 -1230.3939   387.8025 H6            1 RES     
   23769 H6        1175.0048 -1231.8820   386.3725 H6            1 RES     
   23770 H6        1174.3326 -1231.7092   388.0381 H6            1 RES     
   23771 H6        1175.2028 -1233.2211   387.5746 H6            1 RES     
   23772 H6        1182.0767 -1232.7472   389.9100 H6            1 RES     
   23773 H6        1182.1487 -1232.6786   388.1171 H6            1 RES     
   23774 H6        1183.1917 -1234.8509   390.0861 H6            1 RES     
   23775 H6        1183.2652 -1234.9838   388.3143 H6            1 RES     
   23776 H6        1184.5839 -1232.9209   388.1180 H6            1 RES     
   23777 H6        1184.5860 -1232.7077   389.9110 H6            1 RES     
   23778 H6        1185.8740 -1234.8429   390.1765 H6            1 RES     
   23779 H6        1185.7196 -1235.1473   388.4311 H6            1 RES     
   23780 H6        1186.9692 -1232.9686   387.9482 H6            1 RES     
   23781 H6        1187.2196 -1232.8004   389.7211 H6            1 RES     
   23782 H6        1188.5095 -1234.9908   389.6990 H6            1 RES     
   23783 H6        1189.2170 -1233.6985   388.6609 H6            1 RES     
   23784 H6        1188.1576 -1234.7060   386.6233 H6            1 RES     
   23785 H6        1187.5244 -1236.0676   387.6257 H6            1 RES     
   23786 H6        1189.5890 -1236.7133   386.4662 H6            1 RES     
   23787 H6        1190.4881 -1235.3555   387.2408 H6            1 RES     
   23788 H6        1189.8391 -1236.7124   388.2541 H6            1 RES     
   23789 C0        1182.1017 -1235.7581   385.9942 C0            1 RES     
   23790 C0        1183.3191 -1236.6857   386.3202 C0            1 RES     
   23791 C0        1184.6669 -1235.9335   386.0415 C0            1 RES     
   23792 C0        1185.1686 -1235.6899   384.5967 C0            1 RES     
   23793 C0        1184.4005 -1234.6758   383.7246 C0            1 RES     
   23794 C0        1184.2468 -1233.2600   384.3194 C0            1 RES     
   23795 C0        1185.5796 -1232.5648   384.6267 C0            1 RES     
   23796 C0        1185.3392 -1231.1540   385.1603 C0            1 RES     
   23797 C0        1183.3890 -1238.0611   385.5938 C0            1 RES     
   23798 C0        1182.3240 -1239.0633   386.0061 C0            1 RES     
   23799 C0        1182.5551 -1240.4479   385.3994 C0            1 RES     
   23800 C0        1181.4740 -1241.4125   385.9000 C0            1 RES     
   23801 C0        1181.6662 -1242.8202   385.3229 C0            1 RES     
   23802 C0        1180.6353 -1243.8290   385.8574 C0            1 RES     
   23803 C0        1179.1897 -1243.4806   385.4686 C0            1 RES     
   23804 C0        1178.2170 -1244.5461   385.9627 C0            1 RES     
   23805 H6        1182.0033 -1235.7548   384.8948 H6            1 RES     
   23806 H6        1182.4037 -1234.7269   386.2354 H6            1 RES     
   23807 H6        1183.3147 -1236.8822   387.4101 H6            1 RES     
   23808 H6        1185.4585 -1236.5530   386.5164 H6            1 RES     
   23809 H6        1184.6713 -1234.9575   386.5555 H6            1 RES     
   23810 H6        1185.2406 -1236.6551   384.0554 H6            1 RES     
   23811 H6        1186.2103 -1235.3130   384.6841 H6            1 RES     
   23812 H6        1183.4019 -1235.0721   383.4744 H6            1 RES     
   23813 H6        1184.9437 -1234.5886   382.7586 H6            1 RES     
   23814 H6        1183.6448 -1233.2875   385.2444 H6            1 RES     
   23815 H6        1183.6874 -1232.6469   383.5788 H6            1 RES     
   23816 H6        1186.1408 -1233.1340   385.3972 H6            1 RES     
   23817 H6        1186.1927 -1232.5037   383.7019 H6            1 RES     
   23818 H6        1184.7958 -1230.5434   384.4076 H6            1 RES     
   23819 H6        1186.3109 -1230.6651   385.3807 H6            1 RES     
   23820 H6        1184.7404 -1231.1913   386.0961 H6            1 RES     
   23821 H6        1184.3643 -1238.5264   385.8607 H6            1 RES     
   23822 H6        1183.3605 -1237.9212   384.4914 H6            1 RES     
   23823 H6        1182.3661 -1239.1768   387.1076 H6            1 RES     
   23824 H6        1181.3417 -1238.6982   385.6644 H6            1 RES     
   23825 H6        1182.5222 -1240.3813   384.2904 H6            1 RES     
   23826 H6        1183.5547 -1240.8282   385.7092 H6            1 RES     
   23827 H6        1181.5172 -1241.4677   387.0109 H6            1 RES     
   23828 H6        1180.4851 -1241.0100   385.5978 H6            1 RES     
   23829 H6        1181.6103 -1242.7826   384.2131 H6            1 RES     
   23830 H6        1182.6773 -1243.1855   385.6085 H6            1 RES     
   23831 H6        1180.7209 -1243.8937   386.9648 H6            1 RES     
   23832 H6        1180.8872 -1244.8248   385.4313 H6            1 RES     
   23833 H6        1179.1096 -1243.4058   384.3625 H6            1 RES     
   23834 H6        1178.8885 -1242.5119   385.9186 H6            1 RES     
   23835 H6        1177.1828 -1244.2690   385.6682 H6            1 RES     
   23836 H6        1178.4634 -1245.5316   385.5136 H6            1 RES     
   23837 H6        1178.2629 -1244.6257   387.0699 H6            1 RES     
   23838 C0        1181.3511 -1244.9021   396.2150 C0            1 RES     
   23839 C1        1180.9676 -1244.4833   394.7899 C1            1 RES     
   23840 C1        1180.4685 -1245.5027   394.0562 C1            1 RES     
   23841 S2        1180.0316 -1245.0239   392.5150 S2            1 RES     
   23842 C1        1180.4984 -1243.4080   392.7998 C1            1 RES     
   23843 C1        1180.9892 -1243.2679   394.1030 C1            1 RES     
   23844 C1        1180.4740 -1246.6706   394.8604 C1            1 RES     
   23845 C1        1180.9989 -1246.3893   396.0889 C1            1 RES     
   23846 C1        1181.0660 -1247.5154   396.9157 C1            1 RES     
   23847 C1        1180.5768 -1248.6715   396.2552 C1            1 RES     
   23848 S2        1180.0392 -1248.2621   394.6874 S2            1 RES     
   23849 H3        1181.3415 -1242.3370   394.5251 H3            1 RES     
   23850 H3        1181.4579 -1247.4844   397.9213 H3            1 RES     
   23851 N4        1179.6593 -1252.3150   396.5720 N4            1 RES     
   23852 C1        1179.6876 -1251.0172   396.1546 C1            1 RES     
   23853 C1        1180.5510 -1250.0721   396.7560 C1            1 RES     
   23854 C1        1181.3893 -1250.5348   397.7863 C1            1 RES     
   23855 N4        1182.3075 -1249.7742   398.4343 N4            1 RES     
   23856 S2        1183.0024 -1250.8546   399.4744 S2            1 RES     
   23857 N4        1182.2086 -1252.2685   399.1611 N4            1 RES     
   23858 C1        1181.3451 -1251.9013   398.1839 C1            1 RES     
   23859 C1        1180.4632 -1252.7777   397.5661 C1            1 RES     
   23860 H5        1179.0193 -1250.7259   395.3559 H5            1 RES     
   23861 C0        1180.3033 -1244.1378   397.1116 C0            1 RES     
   23862 C0        1179.9869 -1244.3322   398.6364 C0            1 RES     
   23863 C0        1178.5551 -1243.7598   398.9458 C0            1 RES     
   23864 C0        1178.3279 -1242.2223   399.0469 C0            1 RES     
   23865 C0        1178.4923 -1241.3513   397.7840 C0            1 RES     
   23866 C0        1177.6355 -1241.7663   396.5724 C0            1 RES     
   23867 C0        1176.1270 -1241.6794   396.8394 C0            1 RES     
   23868 C0        1175.3321 -1242.0465   395.5882 C0            1 RES     
   23869 C0        1180.9777 -1243.6999   399.6552 C0            1 RES     
   23870 C0        1182.1914 -1244.5537   400.0107 C0            1 RES     
   23871 C0        1183.1527 -1243.7733   400.9261 C0            1 RES     
   23872 C0        1184.4169 -1244.5814   401.2583 C0            1 RES     
   23873 C0        1185.4557 -1243.6968   401.9695 C0            1 RES     
   23874 C0        1186.8242 -1244.3770   402.1593 C0            1 RES     
   23875 C0        1187.5447 -1244.6399   400.8218 C0            1 RES     
   23876 C0        1188.9450 -1245.2048   401.0376 C0            1 RES     
   23877 H6        1180.4709 -1243.0670   396.9295 H6            1 RES     
   23878 H6        1179.3399 -1244.4172   396.6310 H6            1 RES     
   23879 H6        1179.8864 -1245.4232   398.8309 H6            1 RES     
   23880 H6        1178.2809 -1244.1504   399.9517 H6            1 RES     
   23881 H6        1177.8084 -1244.1996   398.2502 H6            1 RES     
   23882 H6        1178.9877 -1241.8043   399.8361 H6            1 RES     
   23883 H6        1177.2883 -1242.0790   399.4105 H6            1 RES     
   23884 H6        1179.5541 -1241.3103   397.4902 H6            1 RES     
   23885 H6        1178.2301 -1240.3048   398.0532 H6            1 RES     
   23886 H6        1177.8932 -1242.7915   396.2487 H6            1 RES     
   23887 H6        1177.8838 -1241.0782   395.7347 H6            1 RES     
   23888 H6        1175.8386 -1242.3774   397.6525 H6            1 RES     
   23889 H6        1175.8626 -1240.6427   397.1412 H6            1 RES     
   23890 H6        1175.5806 -1241.3554   394.7546 H6            1 RES     
   23891 H6        1174.2451 -1241.9698   395.8009 H6            1 RES     
   23892 H6        1175.5615 -1243.0884   395.2777 H6            1 RES     
   23893 H6        1180.4627 -1243.5650   400.6331 H6            1 RES     
   23894 H6        1181.2705 -1242.6914   399.2881 H6            1 RES     
   23895 H6        1181.8621 -1245.4949   400.5025 H6            1 RES     
   23896 H6        1182.7101 -1244.8105   399.0971 H6            1 RES     
   23897 H6        1183.4552 -1242.8522   400.3791 H6            1 RES     
   23898 H6        1182.6451 -1243.4729   401.8686 H6            1 RES     
   23899 H6        1184.1652 -1245.4674   401.8801 H6            1 RES     
   23900 H6        1184.8436 -1244.9531   400.3186 H6            1 RES     
   23901 H6        1185.6226 -1242.7636   401.3868 H6            1 RES     
   23902 H6        1185.0486 -1243.4096   402.9640 H6            1 RES     
   23903 H6        1186.7055 -1245.3232   402.7294 H6            1 RES     
   23904 H6        1187.4573 -1243.6854   402.7571 H6            1 RES     
   23905 H6        1187.6362 -1243.6864   400.2556 H6            1 RES     
   23906 H6        1186.9811 -1245.3682   400.2095 H6            1 RES     
   23907 H6        1189.4306 -1245.3725   400.0546 H6            1 RES     
   23908 H6        1189.5644 -1244.4916   401.6224 H6            1 RES     
   23909 H6        1188.8898 -1246.1745   401.5789 H6            1 RES     
   23910 C0        1182.8626 -1244.4783   396.4134 C0            1 RES     
   23911 C0        1184.0084 -1245.4250   396.9033 C0            1 RES     
   23912 C0        1185.1253 -1244.5975   397.6296 C0            1 RES     
   23913 C0        1186.1191 -1243.7155   396.8341 C0            1 RES     
   23914 C0        1185.5773 -1242.4345   396.1675 C0            1 RES     
   23915 C0        1184.8540 -1241.4446   397.1050 C0            1 RES     
   23916 C0        1185.7226 -1240.9333   398.2617 C0            1 RES     
   23917 C0        1184.9508 -1239.9222   399.1071 C0            1 RES     
   23918 C0        1184.7047 -1246.3213   395.8375 C0            1 RES     
   23919 C0        1183.8374 -1247.4256   395.2571 C0            1 RES     
   23920 C0        1184.6260 -1248.3806   394.3599 C0            1 RES     
   23921 C0        1183.6982 -1249.4917   393.8554 C0            1 RES     
   23922 C0        1184.4457 -1250.4814   392.9537 C0            1 RES     
   23923 C0        1183.5580 -1251.6462   392.4832 C0            1 RES     
   23924 C0        1182.3772 -1251.1927   391.6098 C0            1 RES     
   23925 C0        1181.5710 -1252.3883   391.1141 C0            1 RES     
   23926 H6        1183.2427 -1243.9805   395.5045 H6            1 RES     
   23927 H6        1182.7790 -1243.6610   397.1468 H6            1 RES     
   23928 H6        1183.5884 -1246.0932   397.6804 H6            1 RES     
   23929 H6        1185.7626 -1245.3465   398.1482 H6            1 RES     
   23930 H6        1184.6790 -1243.9596   398.4111 H6            1 RES     
   23931 H6        1186.6413 -1244.3297   396.0725 H6            1 RES     
   23932 H6        1186.9026 -1243.3952   397.5542 H6            1 RES     
   23933 H6        1184.9053 -1242.6975   395.3332 H6            1 RES     
   23934 H6        1186.4413 -1241.9075   395.7074 H6            1 RES     
   23935 H6        1183.9419 -1241.9012   397.5274 H6            1 RES     
   23936 H6        1184.5340 -1240.5759   396.4885 H6            1 RES     
   23937 H6        1186.0211 -1241.7764   398.9195 H6            1 RES     
   23938 H6        1186.6364 -1240.4466   397.8578 H6            1 RES     
   23939 H6        1184.6505 -1239.0497   398.4879 H6            1 RES     
   23940 H6        1185.5900 -1239.5637   399.9407 H6            1 RES     
   23941 H6        1184.0392 -1240.3923   399.5357 H6            1 RES     
   23942 H6        1185.5540 -1246.8345   396.3415 H6            1 RES     
   23943 H6        1185.1145 -1245.6987   395.0128 H6            1 RES     
   23944 H6        1183.4335 -1248.0239   396.0978 H6            1 RES     
   23945 H6        1183.0375 -1246.9680   394.6523 H6            1 RES     
   23946 H6        1185.0522 -1247.8204   393.4997 H6            1 RES     
   23947 H6        1185.4581 -1248.8369   394.9422 H6            1 RES     
   23948 H6        1183.2774 -1250.0422   394.7265 H6            1 RES     
   23949 H6        1182.8669 -1249.0186   393.2929 H6            1 RES     
   23950 H6        1184.8591 -1249.9474   392.0705 H6            1 RES     
   23951 H6        1185.2946 -1250.9132   393.5284 H6            1 RES     
   23952 H6        1183.1780 -1252.2026   393.3684 H6            1 RES     
   23953 H6        1184.1956 -1252.3356   391.8876 H6            1 RES     
   23954 H6        1182.7591 -1250.6276   390.7321 H6            1 RES     
   23955 H6        1181.6928 -1250.5393   392.1897 H6            1 RES     
   23956 H6        1180.7266 -1252.0318   390.4871 H6            1 RES     
   23957 H6        1182.2111 -1253.0583   390.5018 H6            1 RES     
   23958 H6        1181.1599 -1252.9589   391.9741 H6            1 RES     
   23959 C0        1180.0410 -1257.2703   400.5419 C0            1 RES     
   23960 C1        1180.2114 -1256.2612   399.3991 C1            1 RES     
   23961 C1        1180.3292 -1256.8497   398.1882 C1            1 RES     
   23962 S2        1180.4880 -1255.7359   396.9514 S2            1 RES     
   23963 C1        1180.3908 -1254.4132   398.0244 C1            1 RES     
   23964 C1        1180.2331 -1254.8665   399.3392 C1            1 RES     
   23965 C1        1180.2702 -1258.2546   398.3715 C1            1 RES     
   23966 C1        1180.1403 -1258.5474   399.6987 C1            1 RES     
   23967 C1        1180.1156 -1259.9237   399.9459 C1            1 RES     
   23968 C1        1180.2433 -1260.6671   398.7445 C1            1 RES     
   23969 S2        1180.3421 -1259.6053   397.4113 S2            1 RES     
   23970 H3        1180.1404 -1254.2192   400.2002 H3            1 RES     
   23971 H3        1180.0237 -1260.3419   400.9371 H3            1 RES     
   23972 N4        1180.1733 -1264.0799   397.1430 N4            1 RES     
   23973 C1        1180.0668 -1262.7333   397.3295 C1            1 RES     
   23974 C1        1180.3411 -1262.1429   398.5850 C1            1 RES     
   23975 C1        1180.7461 -1263.0023   399.6224 C1            1 RES     
   23976 N4        1181.0924 -1262.5961   400.8700 N4            1 RES     
   23977 S2        1181.5146 -1264.0139   401.6072 S2            1 RES     
   23978 N4        1181.2903 -1265.1510   400.4308 N4            1 RES     
   23979 C1        1180.8635 -1264.4014   399.3861 C1            1 RES     
   23980 C1        1180.5636 -1264.9236   398.1352 C1            1 RES     
   23981 H5        1179.7528 -1262.1277   396.4905 H5            1 RES     
   23982 C0        1178.5633 -1257.0182   401.0305 C0            1 RES     
   23983 C0        1177.6857 -1257.8882   401.9979 C0            1 RES     
   23984 C0        1176.1674 -1257.5505   401.7652 C0            1 RES     
   23985 C0        1175.5606 -1256.2305   402.3266 C0            1 RES     
   23986 C0        1176.0333 -1254.8791   401.7515 C0            1 RES     
   23987 C0        1175.8978 -1254.7208   400.2248 C0            1 RES     
   23988 C0        1174.4459 -1254.7985   399.7346 C0            1 RES     
   23989 C0        1174.3699 -1254.5781   398.2253 C0            1 RES     
   23990 C0        1177.9685 -1257.7625   403.5222 C0            1 RES     
   23991 C0        1179.0808 -1258.6569   404.0619 C0            1 RES     
   23992 C0        1179.3465 -1258.3530   405.5479 C0            1 RES     
   23993 C0        1180.5020 -1259.1949   406.1115 C0            1 RES     
   23994 C0        1180.8974 -1258.7041   407.5151 C0            1 RES     
   23995 C0        1182.1741 -1259.3652   408.0670 C0            1 RES     
   23996 C0        1183.4338 -1258.9783   407.2667 C0            1 RES     
   23997 C0        1184.6999 -1259.5476   407.8989 C0            1 RES     
   23998 H6        1178.5325 -1255.9772   401.3818 H6            1 RES     
   23999 H6        1177.9921 -1257.0720   400.0776 H6            1 RES     
   24000 H6        1177.7747 -1258.9513   401.6811 H6            1 RES     
   24001 H6        1175.5937 -1258.3599   402.2704 H6            1 RES     
   24002 H6        1175.9148 -1257.6451   400.6872 H6            1 RES     
   24003 H6        1175.7025 -1256.1996   403.4274 H6            1 RES     
   24004 H6        1174.4638 -1256.2909   402.1617 H6            1 RES     
   24005 H6        1177.0760 -1254.6854   402.0529 H6            1 RES     
   24006 H6        1175.4413 -1254.0737   402.2386 H6            1 RES     
   24007 H6        1176.5040 -1255.4826   399.7011 H6            1 RES     
   24008 H6        1176.3068 -1253.7227   399.9536 H6            1 RES     
   24009 H6        1174.0146 -1255.7951   399.9631 H6            1 RES     
   24010 H6        1173.8404 -1254.0166   400.2423 H6            1 RES     
   24011 H6        1174.7766 -1253.5793   397.9585 H6            1 RES     
   24012 H6        1173.3116 -1254.6308   397.8934 H6            1 RES     
   24013 H6        1174.9498 -1255.3615   397.6918 H6            1 RES     
   24014 H6        1177.0713 -1258.0962   404.0910 H6            1 RES     
   24015 H6        1178.1404 -1256.6907   403.7652 H6            1 RES     
   24016 H6        1178.8080 -1259.7260   403.9249 H6            1 RES     
   24017 H6        1179.9829 -1258.4608   403.4984 H6            1 RES     
   24018 H6        1179.6241 -1257.2775   405.6208 H6            1 RES     
   24019 H6        1178.4315 -1258.5230   406.1563 H6            1 RES     
   24020 H6        1180.2288 -1260.2718   406.1355 H6            1 RES     
   24021 H6        1181.3621 -1259.0917   405.4385 H6            1 RES     
   24022 H6        1181.0687 -1257.6047   407.4988 H6            1 RES     
   24023 H6        1180.0513 -1258.9070   408.2080 H6            1 RES     
   24024 H6        1182.0532 -1260.4693   408.0919 H6            1 RES     
   24025 H6        1182.3090 -1259.0043   409.1101 H6            1 RES     
   24026 H6        1183.5275 -1257.8700   407.2345 H6            1 RES     
   24027 H6        1183.3745 -1259.3636   406.2318 H6            1 RES     
   24028 H6        1185.5813 -1259.2415   407.2992 H6            1 RES     
   24029 H6        1184.8232 -1259.1620   408.9335 H6            1 RES     
   24030 H6        1184.6523 -1260.6582   407.9230 H6            1 RES     
   24031 C0        1181.1766 -1256.9476   401.5955 C0            1 RES     
   24032 C0        1182.1945 -1257.9871   402.1718 C0            1 RES     
   24033 C0        1182.6653 -1257.5522   403.6033 C0            1 RES     
   24034 C0        1183.6617 -1256.3834   403.8021 C0            1 RES     
   24035 C0        1183.1669 -1254.9522   403.5096 C0            1 RES     
   24036 C0        1181.9017 -1254.5100   404.2749 C0            1 RES     
   24037 C0        1182.0479 -1254.5573   405.8014 C0            1 RES     
   24038 C0        1180.7743 -1254.0557   406.4791 C0            1 RES     
   24039 C0        1183.4684 -1258.2884   401.3288 C0            1 RES     
   24040 C0        1183.2197 -1259.0304   400.0264 C0            1 RES     
   24041 C0        1184.5165 -1259.4581   399.3380 C0            1 RES     
   24042 C0        1184.1842 -1260.2419   398.0631 C0            1 RES     
   24043 C0        1185.4553 -1260.6995   397.3377 C0            1 RES     
   24044 C0        1185.1563 -1261.5456   396.0883 C0            1 RES     
   24045 C0        1184.3878 -1260.7732   395.0042 C0            1 RES     
   24046 C0        1184.1781 -1261.6336   393.7627 C0            1 RES     
   24047 H6        1181.7762 -1256.0840   401.2591 H6            1 RES     
   24048 H6        1180.5979 -1256.5525   402.4451 H6            1 RES     
   24049 H6        1181.6566 -1258.9439   402.3197 H6            1 RES     
   24050 H6        1183.1799 -1258.4400   404.0311 H6            1 RES     
   24051 H6        1181.7920 -1257.3470   404.2451 H6            1 RES     
   24052 H6        1184.5872 -1256.5747   403.2219 H6            1 RES     
   24053 H6        1183.9643 -1256.4056   404.8712 H6            1 RES     
   24054 H6        1182.9965 -1254.8247   402.4272 H6            1 RES     
   24055 H6        1183.9917 -1254.2545   403.7717 H6            1 RES     
   24056 H6        1181.0340 -1255.1289   403.9869 H6            1 RES     
   24057 H6        1181.6774 -1253.4639   403.9706 H6            1 RES     
   24058 H6        1182.2298 -1255.5997   406.1376 H6            1 RES     
   24059 H6        1182.9020 -1253.9199   406.1163 H6            1 RES     
   24060 H6        1180.5675 -1253.0046   406.1836 H6            1 RES     
   24061 H6        1180.8937 -1254.0984   407.5817 H6            1 RES     
   24062 H6        1179.9077 -1254.6895   406.1911 H6            1 RES     
   24063 H6        1184.1185 -1258.9546   401.9392 H6            1 RES     
   24064 H6        1184.0286 -1257.3511   401.1211 H6            1 RES     
   24065 H6        1182.6520 -1259.9533   400.2590 H6            1 RES     
   24066 H6        1182.6688 -1258.3671   399.3397 H6            1 RES     
   24067 H6        1185.1209 -1258.5600   399.0862 H6            1 RES     
   24068 H6        1185.1047 -1260.1093   400.0233 H6            1 RES     
   24069 H6        1183.5776 -1261.1363   398.3297 H6            1 RES     
   24070 H6        1183.5843 -1259.5847   397.4001 H6            1 RES     
   24071 H6        1186.0645 -1259.8145   397.0517 H6            1 RES     
   24072 H6        1186.0556 -1261.3250   398.0347 H6            1 RES     
   24073 H6        1184.5808 -1262.4507   396.3836 H6            1 RES     
   24074 H6        1186.1302 -1261.8764   395.6654 H6            1 RES     
   24075 H6        1184.9597 -1259.8638   394.7190 H6            1 RES     
   24076 H6        1183.3884 -1260.4686   395.3782 H6            1 RES     
   24077 H6        1183.6218 -1261.0514   392.9979 H6            1 RES     
   24078 H6        1185.1566 -1261.9394   393.3353 H6            1 RES     
   24079 H6        1183.5894 -1262.5406   394.0176 H6            1 RES     
   24080 C0        1179.9991 -1270.2846   398.5329 C0            1 RES     
   24081 C1        1180.3934 -1268.8642   398.1081 C1            1 RES     
   24082 C1        1181.1502 -1268.8387   396.9887 C1            1 RES     
   24083 S2        1181.5493 -1267.2827   396.5250 S2            1 RES     
   24084 C1        1180.6945 -1266.5907   397.8292 C1            1 RES     
   24085 C1        1180.1062 -1267.5930   398.6092 C1            1 RES     
   24086 C1        1181.3548 -1270.1756   396.5625 C1            1 RES     
   24087 C1        1180.7474 -1271.0397   397.4275 C1            1 RES     
   24088 C1        1180.9480 -1272.3793   397.0790 C1            1 RES     
   24089 C1        1181.7464 -1272.4959   395.9123 C1            1 RES     
   24090 S2        1182.1463 -1270.9440   395.3237 S2            1 RES     
   24091 H3        1179.5059 -1267.4074   399.4888 H3            1 RES     
   24092 H3        1180.5463 -1273.2024   397.6507 H3            1 RES     
   24093 N4        1183.1763 -1274.8162   393.3068 N4            1 RES     
   24094 C1        1182.6840 -1273.7024   393.9203 C1            1 RES     
   24095 C1        1182.2503 -1273.7374   395.2660 C1            1 RES     
   24096 C1        1182.3680 -1274.9635   395.9453 C1            1 RES     
   24097 N4        1182.0443 -1275.1575   397.2488 N4            1 RES     
   24098 S2        1182.4372 -1276.7454   397.4859 S2            1 RES     
   24099 N4        1183.0109 -1277.2325   396.0159 N4            1 RES     
   24100 C1        1182.9033 -1276.1014   395.2779 C1            1 RES     
   24101 C1        1183.2966 -1276.0083   393.9497 C1            1 RES     
   24102 H5        1182.6219 -1272.7901   393.3430 H5            1 RES     
   24103 C0        1178.4408 -1270.3145   398.2951 C0            1 RES     
   24104 C0        1177.4702 -1271.5477   398.2920 C0            1 RES     
   24105 C0        1176.1623 -1271.1760   397.5017 C0            1 RES     
   24106 C0        1175.0800 -1270.2668   398.1559 C0            1 RES     
   24107 C0        1175.4159 -1268.7910   398.4553 C0            1 RES     
   24108 C0        1175.9081 -1267.9626   397.2529 C0            1 RES     
   24109 C0        1174.8662 -1267.8433   396.1328 C0            1 RES     
   24110 C0        1175.3882 -1266.9661   394.9969 C0            1 RES     
   24111 C0        1177.0402 -1272.1185   399.6736 C0            1 RES     
   24112 C0        1177.9954 -1273.1346   400.2929 C0            1 RES     
   24113 C0        1177.5244 -1273.5295   401.7047 C0            1 RES     
   24114 C0        1178.4948 -1274.5086   402.3840 C0            1 RES     
   24115 C0        1178.1276 -1274.6967   403.8662 C0            1 RES     
   24116 C0        1179.1658 -1275.5066   404.6649 C0            1 RES     
   24117 C0        1180.5142 -1274.7710   404.7985 C0            1 RES     
   24118 C0        1181.4873 -1275.5356   405.6903 C0            1 RES     
   24119 H6        1178.0173 -1269.5459   398.9568 H6            1 RES     
   24120 H6        1178.3591 -1269.9446   397.2492 H6            1 RES     
   24121 H6        1177.9351 -1272.3503   397.6771 H6            1 RES     
   24122 H6        1175.6389 -1272.1393   397.3073 H6            1 RES     
   24123 H6        1176.4217 -1270.7787   396.4970 H6            1 RES     
   24124 H6        1174.7293 -1270.7338   399.1002 H6            1 RES     
   24125 H6        1174.2062 -1270.2711   397.4702 H6            1 RES     
   24126 H6        1176.1529 -1268.7308   399.2731 H6            1 RES     
   24127 H6        1174.5005 -1268.3067   398.8600 H6            1 RES     
   24128 H6        1176.8412 -1268.3912   396.8432 H6            1 RES     
   24129 H6        1176.1434 -1266.9407   397.6236 H6            1 RES     
   24130 H6        1174.6293 -1268.8451   395.7184 H6            1 RES     
   24131 H6        1173.9359 -1267.3896   396.5381 H6            1 RES     
   24132 H6        1175.6194 -1265.9456   395.3703 H6            1 RES     
   24133 H6        1174.6171 -1266.8871   394.2020 H6            1 RES     
   24134 H6        1176.3075 -1267.4101   394.5584 H6            1 RES     
   24135 H6        1176.0942 -1272.6937   399.5551 H6            1 RES     
   24136 H6        1176.8325 -1271.2688   400.3608 H6            1 RES     
   24137 H6        1178.0694 -1274.0321   399.6408 H6            1 RES     
   24138 H6        1178.9761 -1272.6844   400.3648 H6            1 RES     
   24139 H6        1177.4804 -1272.5972   402.3113 H6            1 RES     
   24140 H6        1176.5072 -1273.9771   401.6717 H6            1 RES     
   24141 H6        1178.5018 -1275.4859   401.8550 H6            1 RES     
   24142 H6        1179.5074 -1274.0927   402.3139 H6            1 RES     
   24143 H6        1178.0230 -1273.7052   404.3604 H6            1 RES     
   24144 H6        1177.1425 -1275.2103   403.9203 H6            1 RES     
   24145 H6        1179.3121 -1276.5050   404.2002 H6            1 RES     
   24146 H6        1178.7551 -1275.6534   405.6877 H6            1 RES     
   24147 H6        1180.3463 -1273.7661   405.2459 H6            1 RES     
   24148 H6        1180.9934 -1274.6479   403.8094 H6            1 RES     
   24149 H6        1182.4392 -1274.9713   405.7663 H6            1 RES     
   24150 H6        1181.0641 -1275.6568   406.7105 H6            1 RES     
   24151 H6        1181.6995 -1276.5378   405.2581 H6            1 RES     
   24152 C0        1180.4673 -1270.4474   400.0356 C0            1 RES     
   24153 C0        1181.3590 -1271.6116   400.5818 C0            1 RES     
   24154 C0        1181.0592 -1271.8604   402.1010 C0            1 RES     
   24155 C0        1181.5674 -1270.8854   403.1917 C0            1 RES     
   24156 C0        1180.9191 -1269.4883   403.2733 C0            1 RES     
   24157 C0        1179.3838 -1269.4690   403.4291 C0            1 RES     
   24158 C0        1178.8747 -1270.1982   404.6793 C0            1 RES     
   24159 C0        1177.3551 -1270.0864   404.7852 C0            1 RES     
   24160 C0        1182.9014 -1271.4700   400.4236 C0            1 RES     
   24161 C0        1183.4134 -1271.5483   398.9951 C0            1 RES     
   24162 C0        1184.9403 -1271.5888   398.9205 C0            1 RES     
   24163 C0        1185.3775 -1271.7187   397.4570 C0            1 RES     
   24164 C0        1186.9048 -1271.7697   397.3295 C0            1 RES     
   24165 C0        1187.3751 -1271.9659   395.8781 C0            1 RES     
   24166 C0        1186.9804 -1270.8046   394.9518 C0            1 RES     
   24167 C0        1187.5287 -1271.0150   393.5445 C0            1 RES     
   24168 H6        1180.9287 -1269.5116   400.3959 H6            1 RES     
   24169 H6        1179.5071 -1270.4925   400.5730 H6            1 RES     
   24170 H6        1181.0536 -1272.5439   400.0676 H6            1 RES     
   24171 H6        1181.5382 -1272.8337   402.3446 H6            1 RES     
   24172 H6        1179.9750 -1271.9876   402.2591 H6            1 RES     
   24173 H6        1182.6678 -1270.7725   403.1126 H6            1 RES     
   24174 H6        1181.3832 -1271.3817   404.1688 H6            1 RES     
   24175 H6        1181.1996 -1268.8892   402.3906 H6            1 RES     
   24176 H6        1181.3627 -1268.9660   404.1486 H6            1 RES     
   24177 H6        1178.8951 -1269.9104   402.5430 H6            1 RES     
   24178 H6        1179.0684 -1268.4038   403.4845 H6            1 RES     
   24179 H6        1179.1387 -1271.2754   404.6297 H6            1 RES     
   24180 H6        1179.3357 -1269.7527   405.5870 H6            1 RES     
   24181 H6        1177.0501 -1269.0204   404.8579 H6            1 RES     
   24182 H6        1177.0014 -1270.6204   405.6916 H6            1 RES     
   24183 H6        1176.8709 -1270.5411   403.8938 H6            1 RES     
   24184 H6        1183.3685 -1272.3251   400.9615 H6            1 RES     
   24185 H6        1183.2562 -1270.5275   400.8941 H6            1 RES     
   24186 H6        1183.0381 -1272.4893   398.5460 H6            1 RES     
   24187 H6        1183.0660 -1270.6589   398.4443 H6            1 RES     
   24188 H6        1185.3618 -1270.6603   399.3630 H6            1 RES     
   24189 H6        1185.3180 -1272.4658   399.4930 H6            1 RES     
   24190 H6        1184.9470 -1272.6505   397.0267 H6            1 RES     
   24191 H6        1184.9787 -1270.8466   396.8987 H6            1 RES     
   24192 H6        1187.3481 -1270.8373   397.7422 H6            1 RES     
   24193 H6        1187.2820 -1272.6288   397.9268 H6            1 RES     
   24194 H6        1186.9621 -1272.9195   395.4811 H6            1 RES     
   24195 H6        1188.4841 -1272.0474   395.8922 H6            1 RES     
   24196 H6        1187.3849 -1269.8517   395.3566 H6            1 RES     
   24197 H6        1185.8761 -1270.7248   394.8769 H6            1 RES     
   24198 H6        1187.2290 -1270.1628   392.8986 H6            1 RES     
   24199 H6        1188.6377 -1271.0722   393.5670 H6            1 RES     
   24200 H6        1187.1218 -1271.9525   393.1088 H6            1 RES     
   24201 C0        1183.9088 -1280.9810   391.9213 C0            1 RES     
   24202 C1        1184.0960 -1279.5134   392.3272 C1            1 RES     
   24203 C1        1185.2264 -1278.9672   391.8268 C1            1 RES     
   24204 S2        1185.4021 -1277.3611   392.2566 S2            1 RES     
   24205 C1        1183.9371 -1277.3534   393.1308 C1            1 RES     
   24206 C1        1183.3303 -1278.6132   393.0705 C1            1 RES     
   24207 C1        1185.9038 -1279.9618   391.0767 C1            1 RES     
   24208 C1        1185.2113 -1281.1373   391.1270 C1            1 RES     
   24209 C1        1185.8529 -1282.1696   390.4349 C1            1 RES     
   24210 C1        1187.0735 -1281.7277   389.8628 C1            1 RES     
   24211 S2        1187.3039 -1280.0687   390.1935 S2            1 RES     
   24212 H3        1182.3882 -1278.8591   393.5402 H3            1 RES     
   24213 H3        1185.4549 -1283.1712   390.3709 H3            1 RES     
   24214 N4        1189.9804 -1282.5857   387.6199 N4            1 RES     
   24215 C1        1189.0251 -1281.8813   388.2911 C1            1 RES     
   24216 C1        1188.0832 -1282.5309   389.1223 C1            1 RES     
   24217 C1        1188.1890 -1283.9286   389.2399 C1            1 RES     
   24218 N4        1187.3989 -1284.6985   390.0302 N4            1 RES     
   24219 S2        1188.0189 -1286.2125   389.7952 S2            1 RES     
   24220 N4        1189.2601 -1285.9689   388.7333 N4            1 RES     
   24221 C1        1189.2106 -1284.6292   388.5380 C1            1 RES     
   24222 C1        1190.0959 -1283.9366   387.7232 C1            1 RES     
   24223 H5        1188.9991 -1280.8082   388.1596 H5            1 RES     
   24224 C0        1182.6555 -1280.9357   390.9659 C0            1 RES     
   24225 C0        1182.1019 -1282.0560   390.0165 C0            1 RES     
   24226 C0        1181.2064 -1281.3971   388.9042 C0            1 RES     
   24227 C0        1179.7670 -1280.9069   389.2417 C0            1 RES     
   24228 C0        1179.5827 -1279.7188   390.2085 C0            1 RES     
   24229 C0        1180.3262 -1278.4252   389.8238 C0            1 RES     
   24230 C0        1179.8632 -1277.8361   388.4848 C0            1 RES     
   24231 C0        1180.5930 -1276.5285   388.1856 C0            1 RES     
   24232 C0        1181.2754 -1283.1995   390.6713 C0            1 RES     
   24233 C0        1182.0885 -1284.3637   391.2297 C0            1 RES     
   24234 C0        1181.1715 -1285.3650   391.9560 C0            1 RES     
   24235 C0        1181.9636 -1286.5230   392.5831 C0            1 RES     
   24236 C0        1181.0582 -1287.3694   393.4949 C0            1 RES     
   24237 C0        1181.8186 -1288.4289   394.3138 C0            1 RES     
   24238 C0        1182.7651 -1287.8027   395.3575 C0            1 RES     
   24239 C0        1183.4183 -1288.8655   396.2353 C0            1 RES     
   24240 H6        1181.8219 -1280.5593   391.5753 H6            1 RES     
   24241 H6        1182.9402 -1280.1348   390.2484 H6            1 RES     
   24242 H6        1182.9599 -1282.4829   389.4509 H6            1 RES     
   24243 H6        1181.0607 -1282.1800   388.1261 H6            1 RES     
   24244 H6        1181.7652 -1280.5826   388.3953 H6            1 RES     
   24245 H6        1179.1708 -1281.7584   389.6320 H6            1 RES     
   24246 H6        1179.2958 -1280.6207   388.2775 H6            1 RES     
   24247 H6        1179.8649 -1280.0181   391.2314 H6            1 RES     
   24248 H6        1178.4960 -1279.4908   390.2677 H6            1 RES     
   24249 H6        1181.4172 -1278.6008   389.7908 H6            1 RES     
   24250 H6        1180.1315 -1277.6764   390.6227 H6            1 RES     
   24251 H6        1180.0703 -1278.5474   387.6586 H6            1 RES     
   24252 H6        1178.7705 -1277.6361   388.5253 H6            1 RES     
   24253 H6        1180.3939 -1275.7820   388.9841 H6            1 RES     
   24254 H6        1180.2380 -1276.1161   387.2177 H6            1 RES     
   24255 H6        1181.6878 -1276.7050   388.1173 H6            1 RES     
   24256 H6        1180.6359 -1283.6804   389.8968 H6            1 RES     
   24257 H6        1180.6001 -1282.7573   391.4368 H6            1 RES     
   24258 H6        1182.6433 -1284.8674   390.4083 H6            1 RES     
   24259 H6        1182.8077 -1283.9725   391.9363 H6            1 RES     
   24260 H6        1180.6539 -1284.8091   392.7697 H6            1 RES     
   24261 H6        1180.4031 -1285.7724   391.2633 H6            1 RES     
   24262 H6        1182.4266 -1287.1550   391.7950 H6            1 RES     
   24263 H6        1182.7791 -1286.0974   393.1807 H6            1 RES     
   24264 H6        1180.5213 -1286.7112   394.2137 H6            1 RES     
   24265 H6        1180.2966 -1287.8743   392.8606 H6            1 RES     
   24266 H6        1182.3810 -1289.1057   393.6356 H6            1 RES     
   24267 H6        1181.0604 -1289.0318   394.8599 H6            1 RES     
   24268 H6        1182.1896 -1287.1129   396.0141 H6            1 RES     
   24269 H6        1183.5743 -1287.2348   394.8619 H6            1 RES     
   24270 H6        1184.0835 -1288.3750   396.9749 H6            1 RES     
   24271 H6        1182.6443 -1289.4445   396.7831 H6            1 RES     
   24272 H6        1184.0254 -1289.5588   395.6131 H6            1 RES     
   24273 C0        1183.7185 -1281.7950   393.2648 C0            1 RES     
   24274 C0        1184.5424 -1283.0596   393.6780 C0            1 RES     
   24275 C0        1183.6946 -1283.9753   394.6281 C0            1 RES     
   24276 C0        1183.4438 -1283.5876   396.1063 C0            1 RES     
   24277 C0        1182.5107 -1282.3936   396.3936 C0            1 RES     
   24278 C0        1181.0987 -1282.4819   395.7771 C0            1 RES     
   24279 C0        1180.2965 -1283.7090   396.2293 C0            1 RES     
   24280 C0        1178.8973 -1283.6919   395.6169 C0            1 RES     
   24281 C0        1185.9234 -1282.8266   394.3581 C0            1 RES     
   24282 C0        1186.9958 -1282.2388   393.4564 C0            1 RES     
   24283 C0        1188.3710 -1282.2063   394.1243 C0            1 RES     
   24284 C0        1189.4053 -1281.6503   393.1388 C0            1 RES     
   24285 C0        1190.8058 -1281.6033   393.7614 C0            1 RES     
   24286 C0        1191.8795 -1281.1112   392.7759 C0            1 RES     
   24287 C0        1191.6519 -1279.6659   392.3050 C0            1 RES     
   24288 C0        1192.7785 -1279.2046   391.3866 C0            1 RES     
   24289 H6        1183.7462 -1281.1130   394.1323 H6            1 RES     
   24290 H6        1182.6622 -1282.1001   393.2023 H6            1 RES     
   24291 H6        1184.7155 -1283.6653   392.7670 H6            1 RES     
   24292 H6        1184.2410 -1284.9423   394.6769 H6            1 RES     
   24293 H6        1182.7105 -1284.1850   394.1761 H6            1 RES     
   24294 H6        1184.4119 -1283.4260   396.6227 H6            1 RES     
   24295 H6        1182.9861 -1284.4761   396.5920 H6            1 RES     
   24296 H6        1182.9881 -1281.4538   396.0684 H6            1 RES     
   24297 H6        1182.4025 -1282.3136   397.4971 H6            1 RES     
   24298 H6        1181.1528 -1282.4859   394.6744 H6            1 RES     
   24299 H6        1180.5464 -1281.5643   396.0777 H6            1 RES     
   24300 H6        1180.8042 -1284.6410   395.9036 H6            1 RES     
   24301 H6        1180.2079 -1283.7118   397.3371 H6            1 RES     
   24302 H6        1178.3466 -1282.7813   395.9365 H6            1 RES     
   24303 H6        1178.3304 -1284.5860   395.9502 H6            1 RES     
   24304 H6        1178.9608 -1283.7053   394.5072 H6            1 RES     
   24305 H6        1186.3064 -1283.8217   394.6776 H6            1 RES     
   24306 H6        1185.8097 -1282.1909   395.2629 H6            1 RES     
   24307 H6        1187.0822 -1282.8833   392.5590 H6            1 RES     
   24308 H6        1186.7148 -1281.2047   393.1982 H6            1 RES     
   24309 H6        1188.3307 -1281.5689   395.0340 H6            1 RES     
   24310 H6        1188.6664 -1283.2386   394.4190 H6            1 RES     
   24311 H6        1189.4333 -1282.2964   392.2329 H6            1 RES     
   24312 H6        1189.0866 -1280.6294   392.8431 H6            1 RES     
   24313 H6        1190.7963 -1280.9485   394.6599 H6            1 RES     
   24314 H6        1191.0859 -1282.6309   394.0822 H6            1 RES     
   24315 H6        1191.9139 -1281.7914   391.8963 H6            1 RES     
   24316 H6        1192.8618 -1281.1649   393.2946 H6            1 RES     
   24317 H6        1191.6070 -1278.9901   393.1864 H6            1 RES     
   24318 H6        1190.7000 -1279.5861   391.7402 H6            1 RES     
   24319 H6        1192.5883 -1278.1596   391.0627 H6            1 RES     
   24320 H6        1193.7514 -1279.2404   391.9212 H6            1 RES     
   24321 H6        1192.8308 -1279.8528   390.4858 H6            1 RES     
   24322 C0        1192.6738 -1287.4392   384.5134 C0            1 RES     
   24323 C1        1192.3163 -1286.3099   385.4883 C1            1 RES     
   24324 C1        1193.3864 -1285.5708   385.8556 C1            1 RES     
   24325 S2        1192.9757 -1284.3291   386.8972 S2            1 RES     
   24326 C1        1191.3228 -1284.7510   386.8739 C1            1 RES     
   24327 C1        1191.1177 -1285.8608   386.0461 C1            1 RES     
   24328 C1        1194.5331 -1286.1029   385.2132 C1            1 RES     
   24329 C1        1194.1862 -1287.1896   384.4632 C1            1 RES     
   24330 C1        1195.2859 -1287.7824   383.8343 C1            1 RES     
   24331 C1        1196.4901 -1287.1019   384.1491 C1            1 RES     
   24332 S2        1196.1567 -1285.7670   385.1598 S2            1 RES     
   24333 H3        1190.1537 -1286.3141   385.8619 H3            1 RES     
   24334 H3        1195.2034 -1288.6556   383.2047 H3            1 RES     
   24335 N4        1200.1858 -1286.7863   383.4719 N4            1 RES     
   24336 C1        1198.8989 -1286.4835   383.8056 C1            1 RES     
   24337 C1        1197.8775 -1287.4602   383.7495 C1            1 RES     
   24338 C1        1198.2522 -1288.7571   383.3545 C1            1 RES     
   24339 N4        1197.4095 -1289.8190   383.2937 N4            1 RES     
   24340 S2        1198.4107 -1291.0485   382.8273 S2            1 RES     
   24341 N4        1199.8880 -1290.3228   382.6914 N4            1 RES     
   24342 C1        1199.6092 -1289.0411   383.0304 C1            1 RES     
   24343 C1        1200.5640 -1288.0348   383.0885 C1            1 RES     
   24344 H5        1198.6770 -1285.4679   384.1033 H5            1 RES     
   24345 C0        1191.9737 -1286.9953   383.1723 C0            1 RES     
   24346 C0        1192.1594 -1287.5776   381.7268 C0            1 RES     
   24347 C0        1191.6927 -1286.5075   380.6730 C0            1 RES     
   24348 C0        1190.1755 -1286.2559   380.4270 C0            1 RES     
   24349 C0        1189.3215 -1285.6380   381.5537 C0            1 RES     
   24350 C0        1189.8269 -1284.2937   382.1118 C0            1 RES     
   24351 C0        1189.8509 -1283.1735   381.0635 C0            1 RES     
   24352 C0        1190.3047 -1281.8556   381.6874 C0            1 RES     
   24353 C0        1191.4312 -1288.9121   381.3980 C0            1 RES     
   24354 C0        1192.1812 -1290.1841   381.7826 C0            1 RES     
   24355 C0        1191.3097 -1291.4263   381.5208 C0            1 RES     
   24356 C0        1192.0107 -1292.7243   381.9514 C0            1 RES     
   24357 C0        1191.0338 -1293.9119   381.9004 C0            1 RES     
   24358 C0        1191.6023 -1295.2095   382.5040 C0            1 RES     
   24359 C0        1191.8372 -1295.1015   384.0240 C0            1 RES     
   24360 C0        1192.2878 -1296.4312   384.6204 C0            1 RES     
   24361 H6        1190.8973 -1286.9543   383.3902 H6            1 RES     
   24362 H6        1192.3367 -1285.9503   383.0565 H6            1 RES     
   24363 H6        1193.2506 -1287.6829   381.5356 H6            1 RES     
   24364 H6        1192.0818 -1286.8570   379.6901 H6            1 RES     
   24365 H6        1192.2034 -1285.5384   380.8593 H6            1 RES     
   24366 H6        1189.6912 -1287.2052   380.1153 H6            1 RES     
   24367 H6        1190.1051 -1285.5755   379.5520 H6            1 RES     
   24368 H6        1189.2050 -1286.3610   382.3779 H6            1 RES     
   24369 H6        1188.2928 -1285.4863   381.1598 H6            1 RES     
   24370 H6        1190.8358 -1284.4104   382.5485 H6            1 RES     
   24371 H6        1189.1397 -1283.9917   382.9324 H6            1 RES     
   24372 H6        1190.5517 -1283.4293   380.2419 H6            1 RES     
   24373 H6        1188.8315 -1283.0385   380.6413 H6            1 RES     
   24374 H6        1189.6143 -1281.5557   382.5046 H6            1 RES     
   24375 H6        1190.3075 -1281.0584   380.9146 H6            1 RES     
   24376 H6        1191.3322 -1281.9571   382.0980 H6            1 RES     
   24377 H6        1191.3156 -1289.0053   380.2945 H6            1 RES     
   24378 H6        1190.4111 -1288.8795   381.8407 H6            1 RES     
   24379 H6        1193.1343 -1290.2491   381.2139 H6            1 RES     
   24380 H6        1192.4165 -1290.1384   382.8372 H6            1 RES     
   24381 H6        1190.3799 -1291.3103   382.1217 H6            1 RES     
   24382 H6        1191.0293 -1291.4938   380.4470 H6            1 RES     
   24383 H6        1192.9000 -1292.9208   381.3146 H6            1 RES     
   24384 H6        1192.3683 -1292.5963   382.9805 H6            1 RES     
   24385 H6        1190.1031 -1293.6623   382.4569 H6            1 RES     
   24386 H6        1190.7577 -1294.0926   380.8381 H6            1 RES     
   24387 H6        1192.5424 -1295.4935   381.9846 H6            1 RES     
   24388 H6        1190.8513 -1296.0113   382.3315 H6            1 RES     
   24389 H6        1190.8917 -1294.7965   384.5251 H6            1 RES     
   24390 H6        1192.6196 -1294.3526   384.2474 H6            1 RES     
   24391 H6        1192.4384 -1296.3131   385.7129 H6            1 RES     
   24392 H6        1191.5166 -1297.2128   384.4508 H6            1 RES     
   24393 H6        1193.2471 -1296.7542   384.1603 H6            1 RES     
   24394 C0        1192.1307 -1288.7768   385.1610 C0            1 RES     
   24395 C0        1192.9756 -1290.0724   385.3982 C0            1 RES     
   24396 C0        1192.0492 -1291.3379   385.3786 C0            1 RES     
   24397 C0        1191.1104 -1291.6663   386.5656 C0            1 RES     
   24398 C0        1189.8894 -1290.7530   386.7976 C0            1 RES     
   24399 C0        1188.9386 -1290.5851   385.5937 C0            1 RES     
   24400 C0        1188.3374 -1291.9021   385.0856 C0            1 RES     
   24401 C0        1187.3709 -1291.6418   383.9318 C0            1 RES     
   24402 C0        1193.8380 -1290.1407   386.6927 C0            1 RES     
   24403 C0        1195.0180 -1289.1843   386.7331 C0            1 RES     
   24404 C0        1195.9282 -1289.4260   387.9380 C0            1 RES     
   24405 C0        1197.1180 -1288.4611   387.8819 C0            1 RES     
   24406 C0        1198.0661 -1288.6687   389.0691 C0            1 RES     
   24407 C0        1199.3056 -1287.7597   389.0075 C0            1 RES     
   24408 C0        1198.9631 -1286.2633   389.0845 C0            1 RES     
   24409 C0        1200.2276 -1285.4110   389.0894 C0            1 RES     
   24410 H6        1191.6245 -1288.5604   386.1178 H6            1 RES     
   24411 H6        1191.3069 -1289.0447   384.4810 H6            1 RES     
   24412 H6        1193.6576 -1290.1966   384.5344 H6            1 RES     
   24413 H6        1192.7357 -1292.2096   385.3097 H6            1 RES     
   24414 H6        1191.4312 -1291.3429   384.4649 H6            1 RES     
   24415 H6        1191.6985 -1291.7337   387.5034 H6            1 RES     
   24416 H6        1190.7155 -1292.6887   386.3816 H6            1 RES     
   24417 H6        1190.2212 -1289.7571   387.1367 H6            1 RES     
   24418 H6        1189.3073 -1291.1831   387.6414 H6            1 RES     
   24419 H6        1189.4550 -1290.0888   384.7535 H6            1 RES     
   24420 H6        1188.1103 -1289.9156   385.9147 H6            1 RES     
   24421 H6        1189.1407 -1292.5742   384.7177 H6            1 RES     
   24422 H6        1187.7903 -1292.4075   385.9104 H6            1 RES     
   24423 H6        1186.5376 -1290.9870   384.2658 H6            1 RES     
   24424 H6        1186.9467 -1292.6026   383.5731 H6            1 RES     
   24425 H6        1187.9007 -1291.1505   383.0871 H6            1 RES     
   24426 H6        1194.2735 -1291.1636   386.7460 H6            1 RES     
   24427 H6        1193.2034 -1289.9856   387.5921 H6            1 RES     
   24428 H6        1195.6277 -1289.3512   385.8229 H6            1 RES     
   24429 H6        1194.6364 -1288.1519   386.7925 H6            1 RES     
   24430 H6        1195.3553 -1289.2700   388.8776 H6            1 RES     
   24431 H6        1196.3065 -1290.4729   387.9149 H6            1 RES     
   24432 H6        1197.6807 -1288.6268   386.9359 H6            1 RES     
   24433 H6        1196.7225 -1287.4243   387.8884 H6            1 RES     
   24434 H6        1197.5207 -1288.4914   390.0215 H6            1 RES     
   24435 H6        1198.4189 -1289.7235   389.0608 H6            1 RES     
   24436 H6        1199.8707 -1287.9677   388.0721 H6            1 RES     
   24437 H6        1199.9563 -1288.0198   389.8710 H6            1 RES     
   24438 H6        1198.3891 -1286.0603   390.0145 H6            1 RES     
   24439 H6        1198.3523 -1285.9585   388.2096 H6            1 RES     
   24440 H6        1199.9506 -1284.3371   389.1456 H6            1 RES     
   24441 H6        1200.8591 -1285.6625   389.9678 H6            1 RES     
   24442 H6        1200.8098 -1285.5804   388.1584 H6            1 RES     
   24443 C0        1205.0115 -1289.6475   380.4739 C0            1 RES     
   24444 C1        1204.0168 -1289.0896   381.5000 C1            1 RES     
   24445 C1        1204.6201 -1288.5723   382.5931 C1            1 RES     
   24446 S2        1203.5239 -1287.9456   383.6890 S2            1 RES     
   24447 C1        1202.1901 -1288.3489   382.7048 C1            1 RES     
   24448 C1        1202.6261 -1288.9688   381.5281 C1            1 RES     
   24449 C1        1206.0211 -1288.7301   382.4415 C1            1 RES     
   24450 C1        1206.2947 -1289.3678   381.2657 C1            1 RES     
   24451 C1        1207.6633 -1289.5869   381.0785 C1            1 RES     
   24452 C1        1208.4200 -1289.0949   382.1729 C1            1 RES     
   24453 S2        1207.3824 -1288.3693   383.3181 S2            1 RES     
   24454 H3        1201.9698 -1289.3117   380.7404 H3            1 RES     
   24455 H3        1208.0662 -1290.0826   380.2080 H3            1 RES     
   24456 N4        1211.8613 -1288.4230   383.5596 N4            1 RES     
   24457 C1        1210.5233 -1288.3333   383.3125 C1            1 RES     
   24458 C1        1209.8870 -1289.2020   382.3957 C1            1 RES     
   24459 C1        1210.6903 -1290.1712   381.7682 C1            1 RES     
   24460 N4        1210.2322 -1291.1098   380.9017 N4            1 RES     
   24461 S2        1211.5972 -1291.9723   380.5487 S2            1 RES     
   24462 N4        1212.7730 -1291.2300   381.4397 N4            1 RES     
   24463 C1        1212.0809 -1290.2469   382.0641 C1            1 RES     
   24464 C1        1212.6512 -1289.3542   382.9615 C1            1 RES     
   24465 H5        1209.9616 -1287.5674   383.8296 H5            1 RES     
   24466 C0        1204.8637 -1288.6613   379.2527 C0            1 RES     
   24467 C0        1205.7780 -1288.5226   377.9848 C0            1 RES     
   24468 C0        1205.5634 -1287.1026   377.3437 C0            1 RES     
   24469 C0        1204.2824 -1286.8017   376.5103 C0            1 RES     
   24470 C0        1202.9111 -1286.7797   377.2171 C0            1 RES     
   24471 C0        1202.7962 -1285.8219   378.4186 C0            1 RES     
   24472 C0        1202.9960 -1284.3486   378.0397 C0            1 RES     
   24473 C0        1202.8143 -1283.4452   379.2575 C0            1 RES     
   24474 C0        1205.5986 -1289.5804   376.8586 C0            1 RES     
   24475 C0        1206.3928 -1290.8714   377.0346 C0            1 RES     
   24476 C0        1206.0379 -1291.8804   375.9270 C0            1 RES     
   24477 C0        1206.7760 -1293.2165   376.1053 C0            1 RES     
   24478 C0        1206.2264 -1294.2746   375.1328 C0            1 RES     
   24479 C0        1206.7753 -1295.6916   375.3825 C0            1 RES     
   24480 C0        1206.3095 -1296.2772   376.7305 C0            1 RES     
   24481 C0        1206.7660 -1297.7222   376.9050 C0            1 RES     
   24482 H6        1203.8210 -1288.7479   378.9163 H6            1 RES     
   24483 H6        1204.9816 -1287.6689   379.7411 H6            1 RES     
   24484 H6        1206.8375 -1288.5051   378.3245 H6            1 RES     
   24485 H6        1206.4036 -1286.9609   376.6272 H6            1 RES     
   24486 H6        1205.7000 -1286.3111   378.1115 H6            1 RES     
   24487 H6        1204.2173 -1287.5182   375.6646 H6            1 RES     
   24488 H6        1204.4307 -1285.8009   376.0519 H6            1 RES     
   24489 H6        1202.6313 -1287.7997   377.5284 H6            1 RES     
   24490 H6        1202.1436 -1286.4898   376.4666 H6            1 RES     
   24491 H6        1203.5200 -1286.1004   379.2066 H6            1 RES     
   24492 H6        1201.7756 -1285.9394   378.8447 H6            1 RES     
   24493 H6        1204.0178 -1284.1892   377.6372 H6            1 RES     
   24494 H6        1202.2525 -1284.0605   377.2651 H6            1 RES     
   24495 H6        1201.7929 -1283.5631   379.6786 H6            1 RES     
   24496 H6        1202.9554 -1282.3849   378.9599 H6            1 RES     
   24497 H6        1203.5618 -1283.6979   380.0398 H6            1 RES     
   24498 H6        1205.9882 -1289.1671   375.9010 H6            1 RES     
   24499 H6        1204.5117 -1289.7748   376.7227 H6            1 RES     
   24500 H6        1207.4824 -1290.6504   377.0267 H6            1 RES     
   24501 H6        1206.1399 -1291.3021   377.9939 H6            1 RES     
   24502 H6        1204.9429 -1292.0700   375.9911 H6            1 RES     
   24503 H6        1206.2649 -1291.4614   374.9225 H6            1 RES     
   24504 H6        1207.8700 -1293.0835   375.9623 H6            1 RES     
   24505 H6        1206.6211 -1293.5596   377.1356 H6            1 RES     
   24506 H6        1205.1178 -1294.3250   375.2132 H6            1 RES     
   24507 H6        1206.4792 -1293.9617   374.0957 H6            1 RES     
   24508 H6        1207.8846 -1295.6884   375.3225 H6            1 RES     
   24509 H6        1206.3830 -1296.3456   374.5732 H6            1 RES     
   24510 H6        1205.1983 -1296.2535   376.7817 H6            1 RES     
   24511 H6        1206.7202 -1295.6927   377.5747 H6            1 RES     
   24512 H6        1206.4057 -1298.1076   377.8806 H6            1 RES     
   24513 H6        1206.3501 -1298.3601   376.0959 H6            1 RES     
   24514 H6        1207.8762 -1297.7802   376.8859 H6            1 RES     
   24515 C0        1204.5799 -1291.1455   380.2025 C0            1 RES     
   24516 C0        1205.5254 -1292.3887   380.2999 C0            1 RES     
   24517 C0        1205.0251 -1293.5292   379.3465 C0            1 RES     
   24518 C0        1203.7790 -1294.3803   379.6948 C0            1 RES     
   24519 C0        1202.3968 -1293.6987   379.6353 C0            1 RES     
   24520 C0        1202.0372 -1293.0263   378.2935 C0            1 RES     
   24521 C0        1202.0407 -1293.9845   377.0953 C0            1 RES     
   24522 C0        1201.6244 -1293.2528   375.8208 C0            1 RES     
   24523 C0        1205.7454 -1293.0152   381.7081 C0            1 RES     
   24524 C0        1206.5319 -1292.1538   382.6818 C0            1 RES     
   24525 C0        1206.8729 -1292.8934   383.9762 C0            1 RES     
   24526 C0        1207.7069 -1291.9804   384.8823 C0            1 RES     
   24527 C0        1208.0805 -1292.6807   386.1943 C0            1 RES     
   24528 C0        1208.9734 -1291.8142   387.0987 C0            1 RES     
   24529 C0        1208.2859 -1290.5226   387.5693 C0            1 RES     
   24530 C0        1209.1860 -1289.7360   388.5162 C0            1 RES     
   24531 H6        1203.6800 -1291.3967   380.7903 H6            1 RES     
   24532 H6        1204.2126 -1291.0956   379.1655 H6            1 RES     
   24533 H6        1206.5174 -1292.0931   379.9059 H6            1 RES     
   24534 H6        1205.8613 -1294.2597   379.2902 H6            1 RES     
   24535 H6        1204.8743 -1293.1346   378.3276 H6            1 RES     
   24536 H6        1203.9107 -1294.8510   380.6902 H6            1 RES     
   24537 H6        1203.7551 -1295.2176   378.9645 H6            1 RES     
   24538 H6        1202.3059 -1292.9565   380.4463 H6            1 RES     
   24539 H6        1201.6322 -1294.4770   379.8485 H6            1 RES     
   24540 H6        1202.7271 -1292.1921   378.0767 H6            1 RES     
   24541 H6        1201.0182 -1292.5934   378.4008 H6            1 RES     
   24542 H6        1203.0586 -1294.3991   376.9381 H6            1 RES     
   24543 H6        1201.3328 -1294.8206   377.2816 H6            1 RES     
   24544 H6        1200.5990 -1292.8390   375.9301 H6            1 RES     
   24545 H6        1201.6344 -1293.9570   374.9630 H6            1 RES     
   24546 H6        1202.3291 -1292.4206   375.6050 H6            1 RES     
   24547 H6        1206.3464 -1293.9414   381.5673 H6            1 RES     
   24548 H6        1204.7723 -1293.2981   382.1649 H6            1 RES     
   24549 H6        1207.4906 -1291.8771   382.1998 H6            1 RES     
   24550 H6        1205.9278 -1291.2689   382.9408 H6            1 RES     
   24551 H6        1205.9364 -1293.1922   384.4949 H6            1 RES     
   24552 H6        1207.4621 -1293.8077   383.7385 H6            1 RES     
   24553 H6        1208.6395 -1291.6876   384.3498 H6            1 RES     
   24554 H6        1207.1122 -1291.0681   385.0948 H6            1 RES     
   24555 H6        1207.1575 -1292.9658   386.7447 H6            1 RES     
   24556 H6        1208.6429 -1293.6095   385.9528 H6            1 RES     
   24557 H6        1209.9137 -1291.5637   386.5595 H6            1 RES     
   24558 H6        1209.2371 -1292.4217   387.9921 H6            1 RES     
   24559 H6        1207.3413 -1290.7752   388.0980 H6            1 RES     
   24560 H6        1208.0512 -1289.8691   386.7036 H6            1 RES     
   24561 H6        1208.6648 -1288.8102   388.8395 H6            1 RES     
   24562 H6        1209.4245 -1290.3430   389.4152 H6            1 RES     
   24563 H6        1210.1301 -1289.4527   388.0036 H6            1 RES     
   24564 C0        1218.0301 -1289.5083   382.4507 C0            1 RES     
   24565 C1        1216.5928 -1289.4975   382.9871 C1            1 RES     
   24566 C1        1216.5329 -1289.5168   384.3371 C1            1 RES     
   24567 S2        1214.9610 -1289.4786   384.9055 S2            1 RES     
   24568 C1        1214.3094 -1289.4236   383.3298 C1            1 RES     
   24569 C1        1215.3372 -1289.4343   382.3798 C1            1 RES     
   24570 C1        1217.8587 -1289.5570   384.8383 C1            1 RES     
   24571 C1        1218.7486 -1289.5876   383.8033 C1            1 RES     
   24572 C1        1220.0758 -1289.6670   384.2372 C1            1 RES     
   24573 C1        1220.1553 -1289.7060   385.6530 C1            1 RES     
   24574 S2        1218.5901 -1289.6006   386.3266 S2            1 RES     
   24575 H3        1215.1798 -1289.3987   381.3108 H3            1 RES     
   24576 H3        1220.9151 -1289.7062   383.5592 H3            1 RES     
   24577 N4        1222.4133 -1289.6554   388.6722 N4            1 RES     
   24578 C1        1221.3280 -1289.4942   387.8627 C1            1 RES     
   24579 C1        1221.3677 -1289.8688   386.4995 C1            1 RES     
   24580 C1        1222.5663 -1290.4308   386.0242 C1            1 RES     
   24581 N4        1222.7570 -1290.8863   384.7602 N4            1 RES     
   24582 S2        1224.3045 -1291.4645   384.8143 S2            1 RES     
   24583 N4        1224.7770 -1291.1788   386.3708 N4            1 RES     
   24584 C1        1223.6736 -1290.6004   386.9030 C1            1 RES     
   24585 C1        1223.5787 -1290.1972   388.2281 C1            1 RES     
   24586 H5        1220.4357 -1289.0580   388.2904 H5            1 RES     
   24587 C0        1218.1850 -1288.0801   381.8011 C0            1 RES     
   24588 C0        1219.4892 -1287.3621   381.3043 C0            1 RES     
   24589 C0        1219.2363 -1285.8111   381.2444 C0            1 RES     
   24590 C0        1218.3995 -1285.1952   380.0840 C0            1 RES     
   24591 C0        1216.8961 -1285.5265   379.9805 C0            1 RES     
   24592 C0        1216.0580 -1285.2184   381.2362 C0            1 RES     
   24593 C0        1216.0433 -1283.7288   381.6038 C0            1 RES     
   24594 C0        1215.1528 -1283.4783   382.8189 C0            1 RES     
   24595 C0        1220.0619 -1287.8002   379.9261 C0            1 RES     
   24596 C0        1220.9879 -1289.0127   379.9527 C0            1 RES     
   24597 C0        1221.3879 -1289.4196   378.5225 C0            1 RES     
   24598 C0        1222.2746 -1290.6746   378.5062 C0            1 RES     
   24599 C0        1222.4589 -1291.1909   377.0685 C0            1 RES     
   24600 C0        1223.1692 -1292.5547   376.9851 C0            1 RES     
   24601 C0        1222.3292 -1293.6971   377.5904 C0            1 RES     
   24602 C0        1222.9974 -1295.0540   377.3923 C0            1 RES     
   24603 H6        1217.4375 -1288.0289   380.9970 H6            1 RES     
   24604 H6        1217.8448 -1287.4134   382.6239 H6            1 RES     
   24605 H6        1220.2664 -1287.4760   382.0925 H6            1 RES     
   24606 H6        1220.2409 -1285.3416   381.1453 H6            1 RES     
   24607 H6        1218.8416 -1285.4495   382.2181 H6            1 RES     
   24608 H6        1218.8720 -1285.4531   379.1129 H6            1 RES     
   24609 H6        1218.4857 -1284.0922   380.1822 H6            1 RES     
   24610 H6        1216.7619 -1286.5831   379.6955 H6            1 RES     
   24611 H6        1216.4753 -1284.9462   379.1305 H6            1 RES     
   24612 H6        1216.4220 -1285.8065   382.0987 H6            1 RES     
   24613 H6        1215.0134 -1285.5392   381.0290 H6            1 RES     
   24614 H6        1217.0689 -1283.3814   381.8462 H6            1 RES     
   24615 H6        1215.6541 -1283.1387   380.7459 H6            1 RES     
   24616 H6        1214.1097 -1283.7971   382.6073 H6            1 RES     
   24617 H6        1215.1504 -1282.3950   383.0626 H6            1 RES     
   24618 H6        1215.5337 -1284.0402   383.6984 H6            1 RES     
   24619 H6        1220.7107 -1286.9898   379.5236 H6            1 RES     
   24620 H6        1219.2163 -1287.9369   379.2164 H6            1 RES     
   24621 H6        1221.8907 -1288.7872   380.5612 H6            1 RES     
   24622 H6        1220.4621 -1289.8363   380.4162 H6            1 RES     
   24623 H6        1220.4491 -1289.6427   377.9676 H6            1 RES     
   24624 H6        1221.9131 -1288.5866   378.0064 H6            1 RES     
   24625 H6        1223.2595 -1290.4664   378.9770 H6            1 RES     
   24626 H6        1221.7835 -1291.4500   379.1069 H6            1 RES     
   24627 H6        1221.4682 -1291.2975   376.5733 H6            1 RES     
   24628 H6        1223.0457 -1290.4372   376.4985 H6            1 RES     
   24629 H6        1224.1631 -1292.4995   377.4785 H6            1 RES     
   24630 H6        1223.3255 -1292.7809   375.9076 H6            1 RES     
   24631 H6        1221.3310 -1293.7244   377.0996 H6            1 RES     
   24632 H6        1222.1906 -1293.5483   378.6775 H6            1 RES     
   24633 H6        1222.3600 -1295.8470   377.8340 H6            1 RES     
   24634 H6        1223.1291 -1295.2663   376.3097 H6            1 RES     
   24635 H6        1223.9892 -1295.0717   377.8945 H6            1 RES     
   24636 C0        1218.1243 -1290.7310   381.4508 C0            1 RES     
   24637 C0        1219.2044 -1291.8619   381.5076 C0            1 RES     
   24638 C0        1219.4433 -1292.4592   380.0772 C0            1 RES     
   24639 C0        1218.4090 -1293.4039   379.4167 C0            1 RES     
   24640 C0        1217.0647 -1292.8009   378.9609 C0            1 RES     
   24641 C0        1217.1604 -1291.6028   377.9928 C0            1 RES     
   24642 C0        1217.8999 -1291.9152   376.6854 C0            1 RES     
   24643 C0        1217.9034 -1290.6960   375.7653 C0            1 RES     
   24644 C0        1218.9477 -1293.0523   382.4778 C0            1 RES     
   24645 C0        1219.0167 -1292.7066   383.9557 C0            1 RES     
   24646 C0        1218.9409 -1293.9435   384.8517 C0            1 RES     
   24647 C0        1219.0678 -1293.5203   386.3196 C0            1 RES     
   24648 C0        1219.0036 -1294.7294   387.2605 C0            1 RES     
   24649 C0        1219.1938 -1294.3454   388.7378 C0            1 RES     
   24650 C0        1218.0863 -1293.4223   389.2705 C0            1 RES     
   24651 C0        1218.2838 -1293.1285   390.7538 C0            1 RES     
   24652 H6        1217.1483 -1291.2413   381.3777 H6            1 RES     
   24653 H6        1218.2318 -1290.2260   380.4780 H6            1 RES     
   24654 H6        1220.1682 -1291.3976   381.7946 H6            1 RES     
   24655 H6        1220.3713 -1293.0659   380.1579 H6            1 RES     
   24656 H6        1219.6503 -1291.6500   379.3567 H6            1 RES     
   24657 H6        1218.2134 -1294.2707   380.0802 H6            1 RES     
   24658 H6        1218.8972 -1293.8208   378.5096 H6            1 RES     
   24659 H6        1216.4645 -1292.5079   379.8389 H6            1 RES     
   24660 H6        1216.4912 -1293.6087   378.4566 H6            1 RES     
   24661 H6        1217.6569 -1290.7452   378.4795 H6            1 RES     
   24662 H6        1216.1218 -1291.2886   377.7485 H6            1 RES     
   24663 H6        1218.9544 -1292.1906   376.8970 H6            1 RES     
   24664 H6        1217.4011 -1292.7611   376.1652 H6            1 RES     
   24665 H6        1216.8627 -1290.3999   375.5121 H6            1 RES     
   24666 H6        1218.4437 -1290.9358   374.8260 H6            1 RES     
   24667 H6        1218.4129 -1289.8404   376.2593 H6            1 RES     
   24668 H6        1219.7527 -1293.8008   382.3024 H6            1 RES     
   24669 H6        1217.9709 -1293.5333   382.2541 H6            1 RES     
   24670 H6        1219.9932 -1292.2201   384.1502 H6            1 RES     
   24671 H6        1218.1687 -1292.0485   384.2063 H6            1 RES     
   24672 H6        1217.9736 -1294.4659   384.6883 H6            1 RES     
   24673 H6        1219.7739 -1294.6379   384.5993 H6            1 RES     
   24674 H6        1220.0390 -1292.9971   386.4681 H6            1 RES     
   24675 H6        1218.2412 -1292.8164   386.5488 H6            1 RES     
   24676 H6        1218.0314 -1295.2536   387.1337 H6            1 RES     
   24677 H6        1219.8183 -1295.4355   386.9864 H6            1 RES     
   24678 H6        1220.1847 -1293.8568   388.8684 H6            1 RES     
   24679 H6        1219.1893 -1295.2850   389.3326 H6            1 RES     
   24680 H6        1217.0967 -1293.9081   389.1288 H6            1 RES     
   24681 H6        1218.0936 -1292.4535   388.7293 H6            1 RES     
   24682 H6        1217.4711 -1292.4612   391.1109 H6            1 RES     
   24683 H6        1218.2548 -1294.0708   391.3411 H6            1 RES     
   24684 H6        1219.2589 -1292.6227   390.9198 H6            1 RES     
   24685 C0        1228.5314 -1289.9808   390.3823 C0            1 RES     
   24686 C1        1227.0454 -1290.2466   390.1087 C1            1 RES     
   24687 C1        1226.4245 -1290.8757   391.1310 C1            1 RES     
   24688 S2        1224.8008 -1291.1344   390.8276 S2            1 RES     
   24689 C1        1224.8875 -1290.3877   389.2961 C1            1 RES     
   24690 C1        1226.1913 -1289.9442   389.0464 C1            1 RES     
   24691 C1        1227.3796 -1291.1078   392.1531 C1            1 RES     
   24692 C1        1228.6037 -1290.6468   391.7619 C1            1 RES     
   24693 C1        1229.5979 -1290.8835   392.7167 C1            1 RES     
   24694 C1        1229.0755 -1291.5567   393.8509 C1            1 RES     
   24695 S2        1227.3971 -1291.8030   393.6591 S2            1 RES     
   24696 H3        1226.4991 -1289.4328   388.1451 H3            1 RES     
   24697 H3        1230.6283 -1290.5927   392.5777 H3            1 RES     
   24698 N4        1229.7544 -1292.8252   397.3361 N4            1 RES     
   24699 C1        1229.1116 -1292.3403   396.2357 C1            1 RES     
   24700 C1        1229.8141 -1292.0569   395.0414 C1            1 RES     
   24701 C1        1231.1966 -1292.3158   395.0345 C1            1 RES     
   24702 N4        1232.0081 -1292.1459   393.9602 N4            1 RES     
   24703 S2        1233.4745 -1292.6507   394.5320 S2            1 RES     
   24704 N4        1233.1586 -1293.0889   396.0926 N4            1 RES     
   24705 C1        1231.8312 -1292.8391   396.1967 C1            1 RES     
   24706 C1        1231.0898 -1293.0809   397.3453 C1            1 RES     
   24707 H5        1228.0467 -1292.1651   396.3057 H5            1 RES     
   24708 C0        1228.6031 -1288.4101   390.4984 C0            1 RES     
   24709 C0        1229.7827 -1287.5156   391.0193 C0            1 RES     
   24710 C0        1229.2186 -1286.1113   391.4471 C0            1 RES     
   24711 C0        1228.8337 -1285.0565   390.3676 C0            1 RES     
   24712 C0        1227.6431 -1285.3394   389.4280 C0            1 RES     
   24713 C0        1226.3045 -1285.6517   390.1244 C0            1 RES     
   24714 C0        1225.7815 -1284.4901   390.9796 C0            1 RES     
   24715 C0        1224.4281 -1284.8365   391.5965 C0            1 RES     
   24716 C0        1230.9723 -1287.2699   390.0478 C0            1 RES     
   24717 C0        1232.0583 -1288.3419   390.0515 C0            1 RES     
   24718 C0        1233.1116 -1288.0488   388.9672 C0            1 RES     
   24719 C0        1234.1915 -1289.1402   388.9018 C0            1 RES     
   24720 C0        1235.0856 -1288.9462   387.6647 C0            1 RES     
   24721 C0        1236.0657 -1290.1083   387.4189 C0            1 RES     
   24722 C0        1235.3463 -1291.4197   387.0452 C0            1 RES     
   24723 C0        1236.3367 -1292.5247   386.6916 C0            1 RES     
   24724 H6        1228.2792 -1288.0180   389.5241 H6            1 RES     
   24725 H6        1227.7981 -1288.1955   391.2354 H6            1 RES     
   24726 H6        1230.1542 -1287.9558   391.9714 H6            1 RES     
   24727 H6        1230.0267 -1285.6249   392.0386 H6            1 RES     
   24728 H6        1228.3744 -1286.2382   392.1584 H6            1 RES     
   24729 H6        1229.7201 -1284.8365   389.7361 H6            1 RES     
   24730 H6        1228.6052 -1284.1155   390.9116 H6            1 RES     
   24731 H6        1227.8979 -1286.1557   388.7321 H6            1 RES     
   24732 H6        1227.4984 -1284.4472   388.7804 H6            1 RES     
   24733 H6        1226.3961 -1286.5577   390.7512 H6            1 RES     
   24734 H6        1225.5561 -1285.8679   389.3306 H6            1 RES     
   24735 H6        1226.4920 -1284.2665   391.8021 H6            1 RES     
   24736 H6        1225.6654 -1283.5849   390.3450 H6            1 RES     
   24737 H6        1223.6824 -1285.0489   390.8007 H6            1 RES     
   24738 H6        1224.0650 -1283.9809   392.2039 H6            1 RES     
   24739 H6        1224.5211 -1285.7266   392.2549 H6            1 RES     
   24740 H6        1231.5174 -1286.3504   390.3597 H6            1 RES     
   24741 H6        1230.5674 -1287.0900   389.0274 H6            1 RES     
   24742 H6        1232.5350 -1288.3954   391.0545 H6            1 RES     
   24743 H6        1231.5978 -1289.2978   389.8421 H6            1 RES     
   24744 H6        1232.5800 -1288.0182   387.9897 H6            1 RES     
   24745 H6        1233.5916 -1287.0607   389.1387 H6            1 RES     
   24746 H6        1234.8026 -1289.1450   389.8300 H6            1 RES     
   24747 H6        1233.6917 -1290.1144   388.8354 H6            1 RES     
   24748 H6        1234.4556 -1288.8399   386.7536 H6            1 RES     
   24749 H6        1235.6610 -1288.0030   387.7932 H6            1 RES     
   24750 H6        1236.7114 -1290.2594   388.3102 H6            1 RES     
   24751 H6        1236.7135 -1289.8191   386.5625 H6            1 RES     
   24752 H6        1234.6891 -1291.2450   386.1645 H6            1 RES     
   24753 H6        1234.7284 -1291.7818   387.8879 H6            1 RES     
   24754 H6        1235.7808 -1293.4460   386.4227 H6            1 RES     
   24755 H6        1236.9619 -1292.2215   385.8247 H6            1 RES     
   24756 H6        1236.9943 -1292.7450   387.5608 H6            1 RES     
   24757 C0        1229.3288 -1290.6167   389.1726 C0            1 RES     
   24758 C0        1230.5172 -1291.6261   389.3063 C0            1 RES     
   24759 C0        1231.4751 -1291.5063   388.0702 C0            1 RES     
   24760 C0        1231.0765 -1292.0737   386.6854 C0            1 RES     
   24761 C0        1229.9522 -1291.3605   385.9069 C0            1 RES     
   24762 C0        1230.1621 -1289.8523   385.6557 C0            1 RES     
   24763 C0        1231.4375 -1289.5228   384.8692 C0            1 RES     
   24764 C0        1231.5413 -1288.0196   384.6191 C0            1 RES     
   24765 C0        1230.1640 -1293.1320   389.4838 C0            1 RES     
   24766 C0        1229.5146 -1293.4906   390.8098 C0            1 RES     
   24767 C0        1229.3620 -1295.0004   390.9992 C0            1 RES     
   24768 C0        1228.7490 -1295.2838   392.3753 C0            1 RES     
   24769 C0        1228.5809 -1296.7889   392.6162 C0            1 RES     
   24770 C0        1228.0286 -1297.1102   394.0154 C0            1 RES     
   24771 C0        1226.6155 -1296.5532   394.2507 C0            1 RES     
   24772 C0        1226.0884 -1296.9576   395.6234 C0            1 RES     
   24773 H6        1228.6285 -1291.0610   388.4442 H6            1 RES     
   24774 H6        1229.7158 -1289.7241   388.6565 H6            1 RES     
   24775 H6        1231.1269 -1291.3199   390.1788 H6            1 RES     
   24776 H6        1232.3958 -1292.0627   388.3508 H6            1 RES     
   24777 H6        1231.7695 -1290.4544   387.9175 H6            1 RES     
   24778 H6        1230.8299 -1293.1510   386.7767 H6            1 RES     
   24779 H6        1231.9872 -1292.0241   386.0505 H6            1 RES     
   24780 H6        1228.9855 -1291.5100   386.4168 H6            1 RES     
   24781 H6        1229.8573 -1291.8658   384.9213 H6            1 RES     
   24782 H6        1230.1854 -1289.2964   386.6093 H6            1 RES     
   24783 H6        1229.2837 -1289.4854   385.0804 H6            1 RES     
   24784 H6        1232.3343 -1289.8399   385.4416 H6            1 RES     
   24785 H6        1231.4235 -1290.0532   383.8928 H6            1 RES     
   24786 H6        1230.6693 -1287.6648   384.0288 H6            1 RES     
   24787 H6        1232.4691 -1287.7963   384.0524 H6            1 RES     
   24788 H6        1231.5734 -1287.4684   385.5839 H6            1 RES     
   24789 H6        1231.1195 -1293.7017   389.4491 H6            1 RES     
   24790 H6        1229.5199 -1293.4821   388.6482 H6            1 RES     
   24791 H6        1230.1694 -1293.1224   391.6245 H6            1 RES     
   24792 H6        1228.5109 -1293.0364   390.8478 H6            1 RES     
   24793 H6        1228.7104 -1295.4143   390.1994 H6            1 RES     
   24794 H6        1230.3619 -1295.4863   390.9384 H6            1 RES     
   24795 H6        1229.4102 -1294.8623   393.1654 H6            1 RES     
   24796 H6        1227.7622 -1294.7788   392.4246 H6            1 RES     
   24797 H6        1227.9099 -1297.2211   391.8422 H6            1 RES     
   24798 H6        1229.5768 -1297.2759   392.5251 H6            1 RES     
   24799 H6        1228.7227 -1296.7109   394.7877 H6            1 RES     
   24800 H6        1227.9954 -1298.2170   394.1177 H6            1 RES     
   24801 H6        1225.9265 -1296.9450   393.4714 H6            1 RES     
   24802 H6        1226.6213 -1295.4446   394.2030 H6            1 RES     
   24803 H6        1225.0682 -1296.5426   395.7657 H6            1 RES     
   24804 H6        1226.0377 -1298.0640   395.7068 H6            1 RES     
   24805 H6        1226.7496 -1296.5593   396.4225 H6            1 RES     
   24806 C0        1234.4507 -1293.7491   401.5256 C0            1 RES     
   24807 C1        1233.3319 -1293.8962   400.4863 C1            1 RES     
   24808 C1        1232.5049 -1294.9336   400.7441 C1            1 RES     
   24809 S2        1231.2767 -1295.0642   399.6172 S2            1 RES     
   24810 C1        1231.8251 -1293.7039   398.7458 C1            1 RES     
   24811 C1        1232.9648 -1293.1658   399.3545 C1            1 RES     
   24812 C1        1232.9606 -1295.5810   401.9205 C1            1 RES     
   24813 C1        1234.0865 -1294.9650   402.3862 C1            1 RES     
   24814 C1        1234.6060 -1295.5852   403.5272 C1            1 RES     
   24815 C1        1233.8281 -1296.7102   403.9035 C1            1 RES     
   24816 S2        1232.5017 -1296.8814   402.8424 S2            1 RES     
   24817 H3        1233.4948 -1292.2951   398.9942 H3            1 RES     
   24818 H3        1235.4961 -1295.2395   404.0310 H3            1 RES     
   24819 N4        1233.2431 -1299.4018   406.4783 N4            1 RES     
   24820 C1        1233.0333 -1298.4864   405.4897 C1            1 RES     
   24821 C1        1234.0868 -1297.6777   405.0035 C1            1 RES     
   24822 C1        1235.3591 -1297.8738   405.5703 C1            1 RES     
   24823 N4        1236.4838 -1297.2181   405.1875 N4            1 RES     
   24824 S2        1237.6421 -1297.8932   406.1541 S2            1 RES     
   24825 N4        1236.8078 -1298.9969   407.0559 N4            1 RES     
   24826 C1        1235.5444 -1298.8515   406.5886 C1            1 RES     
   24827 C1        1234.4666 -1299.6034   407.0361 C1            1 RES     
   24828 H5        1232.0317 -1298.3862   405.0945 H5            1 RES     
   24829 C0        1234.0908 -1292.3994   402.2568 C0            1 RES     
   24830 C0        1234.6876 -1291.8105   403.5835 C0            1 RES     
   24831 C0        1233.6793 -1290.7647   404.1860 C0            1 RES     
   24832 C0        1233.5507 -1289.3449   403.5587 C0            1 RES     
   24833 C0        1232.9766 -1289.1994   402.1340 C0            1 RES     
   24834 C0        1231.5858 -1289.8233   401.9092 C0            1 RES     
   24835 C0        1230.4896 -1289.1863   402.7735 C0            1 RES     
   24836 C0        1229.1277 -1289.8049   402.4661 C0            1 RES     
   24837 C0        1236.0810 -1291.1249   403.4943 C0            1 RES     
   24838 C0        1237.2829 -1292.0576   403.6118 C0            1 RES     
   24839 C0        1238.5938 -1291.2820   403.3863 C0            1 RES     
   24840 C0        1239.8245 -1292.2008   403.4392 C0            1 RES     
   24841 C0        1241.0847 -1291.4480   402.9781 C0            1 RES     
   24842 C0        1242.3215 -1292.3506   402.8138 C0            1 RES     
   24843 C0        1242.1634 -1293.3674   401.6657 C0            1 RES     
   24844 C0        1243.4414 -1294.1702   401.4439 C0            1 RES     
   24845 H6        1234.1282 -1291.6166   401.4863 H6            1 RES     
   24846 H6        1233.0236 -1292.5597   402.5264 H6            1 RES     
   24847 H6        1234.7125 -1292.6251   404.3412 H6            1 RES     
   24848 H6        1234.0186 -1290.5801   405.2302 H6            1 RES     
   24849 H6        1232.6700 -1291.2187   404.2848 H6            1 RES     
   24850 H6        1234.5409 -1288.8429   403.5789 H6            1 RES     
   24851 H6        1232.8965 -1288.7570   404.2370 H6            1 RES     
   24852 H6        1233.6887 -1289.6067   401.3974 H6            1 RES     
   24853 H6        1232.9131 -1288.1144   401.8995 H6            1 RES     
   24854 H6        1231.6150 -1290.9125   402.0963 H6            1 RES     
   24855 H6        1231.3203 -1289.6742   400.8396 H6            1 RES     
   24856 H6        1230.7081 -1289.3426   403.8502 H6            1 RES     
   24857 H6        1230.4426 -1288.0948   402.5682 H6            1 RES     
   24858 H6        1228.8646 -1289.6515   401.3977 H6            1 RES     
   24859 H6        1228.3492 -1289.3251   403.0959 H6            1 RES     
   24860 H6        1229.1410 -1290.8942   402.6848 H6            1 RES     
   24861 H6        1236.2062 -1290.4337   404.3582 H6            1 RES     
   24862 H6        1236.1176 -1290.5124   402.5664 H6            1 RES     
   24863 H6        1237.2863 -1292.5480   404.6097 H6            1 RES     
   24864 H6        1237.1967 -1292.8257   402.8554 H6            1 RES     
   24865 H6        1238.5371 -1290.8248   402.3729 H6            1 RES     
   24866 H6        1238.7055 -1290.4675   404.1348 H6            1 RES     
   24867 H6        1239.9654 -1292.6109   404.4624 H6            1 RES     
   24868 H6        1239.6475 -1293.0508   402.7688 H6            1 RES     
   24869 H6        1240.8958 -1290.9557   401.9983 H6            1 RES     
   24870 H6        1241.3087 -1290.6521   403.7221 H6            1 RES     
   24871 H6        1242.5431 -1292.8737   403.7686 H6            1 RES     
   24872 H6        1243.1823 -1291.6908   402.5684 H6            1 RES     
   24873 H6        1241.9216 -1292.8284   400.7228 H6            1 RES     
   24874 H6        1241.3518 -1294.0854   401.8869 H6            1 RES     
   24875 H6        1243.2889 -1294.8827   400.6077 H6            1 RES     
   24876 H6        1244.2836 -1293.4935   401.1846 H6            1 RES     
   24877 H6        1243.6992 -1294.7446   402.3604 H6            1 RES     
   24878 C0        1235.8122 -1293.7508   400.7193 C0            1 RES     
   24879 C0        1237.0335 -1294.6841   401.0127 C0            1 RES     
   24880 C0        1238.3667 -1293.9965   400.5548 C0            1 RES     
   24881 C0        1238.7413 -1293.8853   399.0562 C0            1 RES     
   24882 C0        1237.9200 -1292.9230   398.1739 C0            1 RES     
   24883 C0        1237.8516 -1291.4599   398.6602 C0            1 RES     
   24884 C0        1239.2214 -1290.7813   398.7901 C0            1 RES     
   24885 C0        1239.0610 -1289.3255   399.2237 C0            1 RES     
   24886 C0        1237.0075 -1296.1152   400.3999 C0            1 RES     
   24887 C0        1235.9624 -1297.0493   400.9862 C0            1 RES     
   24888 C0        1236.1076 -1298.4846   400.4788 C0            1 RES     
   24889 C0        1235.0552 -1299.3736   401.1511 C0            1 RES     
   24890 C0        1235.1638 -1300.8283   400.6783 C0            1 RES     
   24891 C0        1234.1636 -1301.7601   401.3836 C0            1 RES     
   24892 C0        1232.6967 -1301.4022   401.0960 C0            1 RES     
   24893 C0        1231.7496 -1302.3955   401.7607 C0            1 RES     
   24894 H6        1235.6151 -1293.8336   399.6363 H6            1 RES     
   24895 H6        1236.1572 -1292.7127   400.8464 H6            1 RES     
   24896 H6        1237.1230 -1294.7917   402.1114 H6            1 RES     
   24897 H6        1239.1842 -1294.5984   401.0080 H6            1 RES     
   24898 H6        1238.4388 -1292.9828   400.9835 H6            1 RES     
   24899 H6        1238.7431 -1294.8928   398.5928 H6            1 RES     
   24900 H6        1239.7946 -1293.5331   399.0199 H6            1 RES     
   24901 H6        1236.8945 -1293.3090   398.0465 H6            1 RES     
   24902 H6        1238.3757 -1292.9301   397.1600 H6            1 RES     
   24903 H6        1237.3349 -1291.3950   399.6337 H6            1 RES     
   24904 H6        1237.2412 -1290.8927   397.9234 H6            1 RES     
   24905 H6        1239.8373 -1291.3025   399.5528 H6            1 RES     
   24906 H6        1239.7498 -1290.8130   397.8130 H6            1 RES     
   24907 H6        1238.4654 -1288.7622   398.4735 H6            1 RES     
   24908 H6        1240.0591 -1288.8490   399.3162 H6            1 RES     
   24909 H6        1238.5484 -1289.2697   400.2084 H6            1 RES     
   24910 H6        1237.9925 -1296.5856   400.6175 H6            1 RES     
   24911 H6        1236.8828 -1296.0641   399.2965 H6            1 RES     
   24912 H6        1236.1012 -1297.0745   402.0854 H6            1 RES     
   24913 H6        1234.9615 -1296.6845   400.7033 H6            1 RES     
   24914 H6        1235.9762 -1298.5069   399.3753 H6            1 RES     
   24915 H6        1237.1225 -1298.8675   400.7298 H6            1 RES     
   24916 H6        1235.1972 -1299.3400   402.2546 H6            1 RES     
   24917 H6        1234.0521 -1298.9681   400.9047 H6            1 RES     
   24918 H6        1235.0089 -1300.8790   399.5785 H6            1 RES     
   24919 H6        1236.1883 -1301.1986   400.9032 H6            1 RES     
   24920 H6        1234.3472 -1301.7376   402.4806 H6            1 RES     
   24921 H6        1234.3542 -1302.7940   401.0211 H6            1 RES     
   24922 H6        1232.5188 -1301.4148   399.9988 H6            1 RES     
   24923 H6        1232.4586 -1300.3920   401.4886 H6            1 RES     
   24924 H6        1230.6993 -1302.1131   401.5364 H6            1 RES     
   24925 H6        1231.9329 -1303.4209   401.3751 H6            1 RES     
   24926 H6        1231.8933 -1302.3867   402.8623 H6            1 RES     
   24927 C0        1235.7869 -1302.0128   411.6911 C0            1 RES     
   24928 C1        1235.2857 -1301.6996   410.2754 C1            1 RES     
   24929 C1        1234.7003 -1302.7599   409.6758 C1            1 RES     
   24930 S2        1234.1367 -1302.3948   408.1447 S2            1 RES     
   24931 C1        1234.6625 -1300.7754   408.2519 C1            1 RES     
   24932 C1        1235.2718 -1300.5449   409.4907 C1            1 RES     
   24933 C1        1234.7528 -1303.8587   410.5706 C1            1 RES     
   24934 C1        1235.3923 -1303.4945   411.7205 C1            1 RES     
   24935 C1        1235.5092 -1304.5514   412.6290 C1            1 RES     
   24936 C1        1234.9372 -1305.7424   412.1125 C1            1 RES     
   24937 S2        1234.2696 -1305.4456   410.5696 S2            1 RES     
   24938 H3        1235.6809 -1299.5936   409.8012 H3            1 RES     
   24939 H3        1235.9907 -1304.4507   413.5900 H3            1 RES     
   24940 N4        1233.9727 -1309.3200   412.8106 N4            1 RES     
   24941 C1        1233.9916 -1308.0616   412.2860 C1            1 RES     
   24942 C1        1234.9261 -1307.0966   412.7283 C1            1 RES     
   24943 C1        1235.8437 -1307.4988   413.7157 C1            1 RES     
   24944 N4        1236.8329 -1306.7153   414.2147 N4            1 RES     
   24945 S2        1237.5950 -1307.7279   415.2758 S2            1 RES     
   24946 N4        1236.7455 -1309.1388   415.1522 N4            1 RES     
   24947 C1        1235.8057 -1308.8267   414.2278 C1            1 RES     
   24948 C1        1234.8527 -1309.7241   413.7651 C1            1 RES     
   24949 H5        1233.2605 -1307.8164   411.5278 H5            1 RES     
   24950 C0        1234.8412 -1301.1483   412.6098 C0            1 RES     
   24951 C0        1234.6594 -1301.2094   414.1674 C0            1 RES     
   24952 C0        1233.2741 -1300.5724   414.5530 C0            1 RES     
   24953 C0        1233.0906 -1299.0258   414.5456 C0            1 RES     
   24954 C0        1233.1594 -1298.2649   413.2051 C0            1 RES     
   24955 C0        1232.1880 -1298.7513   412.1125 C0            1 RES     
   24956 C0        1230.7120 -1298.5992   412.5031 C0            1 RES     
   24957 C0        1229.7997 -1299.0429   411.3617 C0            1 RES     
   24958 C0        1235.7516 -1300.5260   415.0389 C0            1 RES     
   24959 C0        1236.9735 -1301.3833   415.3558 C0            1 RES     
   24960 C0        1238.0302 -1300.5598   416.1150 C0            1 RES     
   24961 C0        1239.3012 -1301.3750   416.4005 C0            1 RES     
   24962 C0        1240.4190 -1300.4665   416.9414 C0            1 RES     
   24963 C0        1241.7839 -1301.1687   417.0659 C0            1 RES     
   24964 C0        1242.3749 -1301.5598   415.6966 C0            1 RES     
   24965 C0        1243.7763 -1302.1460   415.8344 C0            1 RES     
   24966 H6        1235.0150 -1300.1010   412.3253 H6            1 RES     
   24967 H6        1233.8325 -1301.4374   412.2408 H6            1 RES     
   24968 H6        1234.5531 -1302.2778   414.4600 H6            1 RES     
   24969 H6        1233.0833 -1300.8723   415.6082 H6            1 RES     
   24970 H6        1232.4583 -1301.0450   413.9650 H6            1 RES     
   24971 H6        1233.8278 -1298.5648   415.2362 H6            1 RES     
   24972 H6        1232.0914 -1298.8233   414.9862 H6            1 RES     
   24973 H6        1234.1910 -1298.2788   412.8165 H6            1 RES     
   24974 H6        1232.9455 -1297.1929   413.4085 H6            1 RES     
   24975 H6        1232.3930 -1299.8064   411.8536 H6            1 RES     
   24976 H6        1232.3747 -1298.1407   411.2018 H6            1 RES     
   24977 H6        1230.4829 -1299.2205   413.3936 H6            1 RES     
   24978 H6        1230.4986 -1297.5342   412.7398 H6            1 RES     
   24979 H6        1229.9870 -1298.4289   410.4548 H6            1 RES     
   24980 H6        1228.7382 -1298.9176   411.6622 H6            1 RES     
   24981 H6        1229.9773 -1300.1127   411.1199 H6            1 RES     
   24982 H6        1235.3299 -1300.2975   416.0438 H6            1 RES     
   24983 H6        1236.0320 -1299.5595   414.5649 H6            1 RES     
   24984 H6        1236.6693 -1302.2717   415.9512 H6            1 RES     
   24985 H6        1237.4019 -1301.7281   414.4246 H6            1 RES     
   24986 H6        1238.3022 -1299.6953   415.4688 H6            1 RES     
   24987 H6        1237.6164 -1300.1696   417.0703 H6            1 RES     
   24988 H6        1239.0874 -1302.2001   417.1136 H6            1 RES     
   24989 H6        1239.6333 -1301.8337   415.4611 H6            1 RES     
   24990 H6        1240.5530 -1299.5887   416.2708 H6            1 RES     
   24991 H6        1240.1097 -1300.0881   417.9406 H6            1 RES     
   24992 H6        1241.6965 -1302.0618   417.7209 H6            1 RES     
   24993 H6        1242.4832 -1300.4498   417.5460 H6            1 RES     
   24994 H6        1242.4358 -1300.6583   415.0472 H6            1 RES     
   24995 H6        1241.7426 -1302.3185   415.1989 H6            1 RES     
   24996 H6        1244.1675 -1302.4067   414.8298 H6            1 RES     
   24997 H6        1244.4614 -1301.4062   416.3011 H6            1 RES     
   24998 H6        1243.7490 -1303.0667   416.4572 H6            1 RES     
   24999 C0        1237.3191 -1301.6186   411.7196 C0            1 RES     
   25000 C0        1238.4833 -1302.5556   412.1837 C0            1 RES     
   25001 C0        1239.6790 -1301.7050   412.7375 C0            1 RES     
   25002 C0        1240.6161 -1300.9196   411.7869 C0            1 RES     
   25003 C0        1240.0445 -1299.6814   411.0665 C0            1 RES     
   25004 C0        1239.4305 -1298.5983   411.9785 C0            1 RES     
   25005 C0        1240.4108 -1298.0208   413.0077 C0            1 RES     
   25006 C0        1239.7406 -1296.9225   413.8309 C0            1 RES     
   25007 C0        1239.0610 -1303.5551   411.1389 C0            1 RES     
   25008 C0        1238.1210 -1304.6769   410.7309 C0            1 RES     
   25009 C0        1238.8044 -1305.7239   409.8503 C0            1 RES     
   25010 C0        1237.8109 -1306.8446   409.5236 C0            1 RES     
   25011 C0        1238.4522 -1307.9254   408.6449 C0            1 RES     
   25012 C0        1237.5004 -1309.0980   408.3529 C0            1 RES     
   25013 C0        1236.2559 -1308.6823   407.5523 C0            1 RES     
   25014 C0        1235.3823 -1309.8901   407.2306 C0            1 RES     
   25015 H6        1237.6264 -1301.2072   410.7425 H6            1 RES     
   25016 H6        1237.3198 -1300.7426   412.3871 H6            1 RES     
   25017 H6        1238.1207 -1303.1463   413.0476 H6            1 RES     
   25018 H6        1240.3439 -1302.4279   413.2583 H6            1 RES     
   25019 H6        1239.3190 -1300.9933   413.4995 H6            1 RES     
   25020 H6        1241.0539 -1301.6083   411.0361 H6            1 RES     
   25021 H6        1241.4681 -1300.5652   412.4061 H6            1 RES     
   25022 H6        1239.2944 -1299.9913   410.3194 H6            1 RES     
   25023 H6        1240.8747 -1299.2188   410.4899 H6            1 RES     
   25024 H6        1238.5503 -1298.9924   412.5161 H6            1 RES     
   25025 H6        1239.0752 -1297.7733   411.3225 H6            1 RES     
   25026 H6        1240.7489 -1298.8162   413.7044 H6            1 RES     
   25027 H6        1241.2948 -1297.5951   412.4859 H6            1 RES     
   25028 H6        1239.4048 -1296.0946   413.1701 H6            1 RES     
   25029 H6        1240.4600 -1296.5166   414.5722 H6            1 RES     
   25030 H6        1238.8613 -1297.3296   414.3757 H6            1 RES     
   25031 H6        1239.9409 -1304.0504   411.6071 H6            1 RES     
   25032 H6        1239.4083 -1303.0134   410.2325 H6            1 RES     
   25033 H6        1237.7815 -1305.1933   411.6508 H6            1 RES     
   25034 H6        1237.2800 -1304.2465   410.1631 H6            1 RES     
   25035 H6        1239.1635 -1305.2478   408.9123 H6            1 RES     
   25036 H6        1239.6755 -1306.1557   410.3929 H6            1 RES     
   25037 H6        1237.4584 -1307.3104   410.4711 H6            1 RES     
   25038 H6        1236.9427 -1306.3946   408.9991 H6            1 RES     
   25039 H6        1238.7959 -1307.4768   407.6874 H6            1 RES     
   25040 H6        1239.3398 -1308.3339   409.1765 H6            1 RES     
   25041 H6        1237.1898 -1309.5697   409.3113 H6            1 RES     
   25042 H6        1238.0666 -1309.8516   407.7628 H6            1 RES     
   25043 H6        1236.5693 -1308.2014   406.6004 H6            1 RES     
   25044 H6        1235.6411 -1307.9646   408.1339 H6            1 RES     
   25045 H6        1234.4929 -1309.5609   406.6530 H6            1 RES     
   25046 H6        1235.9499 -1310.6258   406.6221 H6            1 RES     
   25047 H6        1235.0381 -1310.3771   408.1680 H6            1 RES     
   25048 C0        1234.6026 -1313.9472   417.1296 C0            1 RES     
   25049 C1        1234.6913 -1313.0392   415.8963 C1            1 RES     
   25050 C1        1234.6864 -1313.7269   414.7329 C1            1 RES     
   25051 S2        1234.7574 -1312.7218   413.3986 S2            1 RES     
   25052 C1        1234.7863 -1311.3144   414.3623 C1            1 RES     
   25053 C1        1234.7379 -1311.6551   415.7190 C1            1 RES     
   25054 C1        1234.6136 -1315.1100   415.0368 C1            1 RES     
   25055 C1        1234.5975 -1315.2906   416.3900 C1            1 RES     
   25056 C1        1234.5652 -1316.6412   416.7520 C1            1 RES     
   25057 C1        1234.5678 -1317.4826   415.6100 C1            1 RES     
   25058 S2        1234.5691 -1316.5355   414.1896 S2            1 RES     
   25059 H3        1234.7373 -1310.9380   416.5280 H3            1 RES     
   25060 H3        1234.5540 -1316.9750   417.7787 H3            1 RES     
   25061 N4        1234.2791 -1321.0102   414.3101 N4            1 RES     
   25062 C1        1234.2193 -1319.6505   414.3927 C1            1 RES     
   25063 C1        1234.6186 -1318.9688   415.5657 C1            1 RES     
   25064 C1        1235.0966 -1319.7529   416.6312 C1            1 RES     
   25065 N4        1235.5628 -1319.2574   417.8054 N4            1 RES     
   25066 S2        1236.0187 -1320.6227   418.6178 S2            1 RES     
   25067 N4        1235.6644 -1321.8442   417.5643 N4            1 RES     
   25068 C1        1235.1616 -1321.1693   416.5026 C1            1 RES     
   25069 C1        1234.7388 -1321.7821   415.3308 C1            1 RES     
   25070 H5        1233.8442 -1319.1057   413.5371 H5            1 RES     
   25071 C0        1233.1808 -1313.6134   417.7238 C0            1 RES     
   25072 C0        1232.3752 -1314.3764   418.8337 C0            1 RES     
   25073 C0        1230.8499 -1314.0145   418.7083 C0            1 RES     
   25074 C0        1230.3252 -1312.6363   419.2094 C0            1 RES     
   25075 C0        1230.7735 -1311.3501   418.4845 C0            1 RES     
   25076 C0        1230.5043 -1311.3119   416.9679 C0            1 RES     
   25077 C0        1229.0128 -1311.3866   416.6156 C0            1 RES     
   25078 C0        1228.8058 -1311.2869   415.1058 C0            1 RES     
   25079 C0        1232.7971 -1314.1362   420.3114 C0            1 RES     
   25080 C0        1233.9337 -1315.0161   420.8235 C0            1 RES     
   25081 C0        1234.3389 -1314.6010   422.2499 C0            1 RES     
   25082 C0        1235.5219 -1315.4279   422.7775 C0            1 RES     
   25083 C0        1236.0528 -1314.8369   424.0952 C0            1 RES     
   25084 C0        1237.3593 -1315.4882   424.5855 C0            1 RES     
   25085 C0        1238.5500 -1315.2042   423.6480 C0            1 RES     
   25086 C0        1239.8552 -1315.7572   424.2114 C0            1 RES     
   25087 H6        1233.2046 -1312.5470   417.9887 H6            1 RES     
   25088 H6        1232.5250 -1313.7274   416.8327 H6            1 RES     
   25089 H6        1232.4121 -1315.4638   418.5998 H6            1 RES     
   25090 H6        1230.3066 -1314.7633   419.3277 H6            1 RES     
   25091 H6        1230.4992 -1314.1885   417.6684 H6            1 RES     
   25092 H6        1230.5664 -1312.5207   420.2870 H6            1 RES     
   25093 H6        1229.2170 -1312.6778   419.1473 H6            1 RES     
   25094 H6        1231.8431 -1311.1632   418.6758 H6            1 RES     
   25095 H6        1230.2455 -1310.4911   418.9532 H6            1 RES     
   25096 H6        1231.0441 -1312.1309   416.4579 H6            1 RES     
   25097 H6        1230.9089 -1310.3514   416.5797 H6            1 RES     
   25098 H6        1228.5823 -1312.3485   416.9633 H6            1 RES     
   25099 H6        1228.4728 -1310.5490   417.1079 H6            1 RES     
   25100 H6        1229.2085 -1310.3251   414.7221 H6            1 RES     
   25101 H6        1227.7211 -1311.3353   414.8739 H6            1 RES     
   25102 H6        1229.3180 -1312.1274   414.5902 H6            1 RES     
   25103 H6        1231.9477 -1314.3965   420.9828 H6            1 RES     
   25104 H6        1233.0135 -1313.0537   420.4484 H6            1 RES     
   25105 H6        1233.6264 -1316.0844   420.8004 H6            1 RES     
   25106 H6        1234.7853 -1314.8926   420.1684 H6            1 RES     
   25107 H6        1234.6454 -1313.5317   422.2084 H6            1 RES     
   25108 H6        1233.4790 -1314.6944   422.9485 H6            1 RES     
   25109 H6        1235.2285 -1316.4909   422.9149 H6            1 RES     
   25110 H6        1236.3199 -1315.4045   422.0252 H6            1 RES     
   25111 H6        1236.2460 -1313.7480   423.9725 H6            1 RES     
   25112 H6        1235.2684 -1314.9584   424.8744 H6            1 RES     
   25113 H6        1237.2172 -1316.5827   424.7127 H6            1 RES     
   25114 H6        1237.5956 -1315.0483   425.5791 H6            1 RES     
   25115 H6        1238.6646 -1314.1053   423.5157 H6            1 RES     
   25116 H6        1238.3892 -1315.6700   422.6580 H6            1 RES     
   25117 H6        1240.6854 -1315.5265   423.5130 H6            1 RES     
   25118 H6        1240.0797 -1315.2930   425.1955 H6            1 RES     
   25119 H6        1239.7857 -1316.8604   424.3318 H6            1 RES     
   25120 C0        1235.8354 -1313.5737   418.0486 C0            1 RES     
   25121 C0        1236.8782 -1314.5924   418.6174 C0            1 RES     
   25122 C0        1237.4856 -1314.0571   419.9607 C0            1 RES     
   25123 C0        1238.5211 -1312.9056   419.9732 C0            1 RES     
   25124 C0        1238.0332 -1311.4889   419.6075 C0            1 RES     
   25125 C0        1236.8522 -1310.9496   420.4418 C0            1 RES     
   25126 C0        1237.1344 -1310.8776   421.9481 C0            1 RES     
   25127 C0        1235.9384 -1310.2859   422.6913 C0            1 RES     
   25128 C0        1238.0640 -1314.9979   417.6935 C0            1 RES     
   25129 C0        1237.6827 -1315.8352   416.4843 C0            1 RES     
   25130 C0        1238.9024 -1316.3548   415.7222 C0            1 RES     
   25131 C0        1238.4395 -1317.2290   414.5511 C0            1 RES     
   25132 C0        1239.6298 -1317.7807   413.7571 C0            1 RES     
   25133 C0        1239.2009 -1318.7159   412.6136 C0            1 RES     
   25134 C0        1238.3548 -1318.0117   411.5410 C0            1 RES     
   25135 C0        1238.0152 -1318.9631   410.3986 C0            1 RES     
   25136 H6        1236.4209 -1312.7580   417.5901 H6            1 RES     
   25137 H6        1235.3444 -1313.0944   418.9101 H6            1 RES     
   25138 H6        1236.3350 -1315.5180   418.8911 H6            1 RES     
   25139 H6        1238.0171 -1314.9221   420.4138 H6            1 RES     
   25140 H6        1236.6784 -1313.7753   420.6577 H6            1 RES     
   25141 H6        1239.3861 -1313.1701   419.3316 H6            1 RES     
   25142 H6        1238.9183 -1312.8501   421.0096 H6            1 RES     
   25143 H6        1237.7688 -1311.4445   418.5374 H6            1 RES     
   25144 H6        1238.8934 -1310.7967   419.7370 H6            1 RES     
   25145 H6        1235.9487 -1311.5642   420.2838 H6            1 RES     
   25146 H6        1236.6242 -1309.9254   420.0725 H6            1 RES     
   25147 H6        1237.3231 -1311.8942   422.3524 H6            1 RES     
   25148 H6        1238.0271 -1310.2420   422.1325 H6            1 RES     
   25149 H6        1235.7288 -1309.2566   422.3288 H6            1 RES     
   25150 H6        1236.1557 -1310.2428   423.7788 H6            1 RES     
   25151 H6        1235.0357 -1310.9154   422.5344 H6            1 RES     
   25152 H6        1238.7517 -1315.6312   418.2974 H6            1 RES     
   25153 H6        1238.6235 -1314.0972   417.3600 H6            1 RES     
   25154 H6        1237.1183 -1316.7193   416.8418 H6            1 RES     
   25155 H6        1237.0867 -1315.2138   415.7959 H6            1 RES     
   25156 H6        1239.5012 -1315.4980   415.3444 H6            1 RES     
   25157 H6        1239.5357 -1316.9653   416.4048 H6            1 RES     
   25158 H6        1237.8400 -1318.0809   414.9436 H6            1 RES     
   25159 H6        1237.7968 -1316.6104   413.8912 H6            1 RES     
   25160 H6        1240.2299 -1316.9399   413.3460 H6            1 RES     
   25161 H6        1240.2766 -1318.3651   414.4481 H6            1 RES     
   25162 H6        1238.6347 -1319.5770   413.0326 H6            1 RES     
   25163 H6        1240.1252 -1319.1081   412.1355 H6            1 RES     
   25164 H6        1238.9184 -1317.1453   411.1319 H6            1 RES     
   25165 H6        1237.4001 -1317.6487   411.9749 H6            1 RES     
   25166 H6        1237.4051 -1318.4286   409.6401 H6            1 RES     
   25167 H6        1238.9443 -1319.3309   409.9136 H6            1 RES     
   25168 H6        1237.4323 -1319.8290   410.7789 H6            1 RES     
   25169 C0        1234.0956 -1327.0746   416.2209 C0            1 RES     
   25170 C1        1234.4809 -1325.7052   415.6464 C1            1 RES     
   25171 C1        1235.1341 -1325.7924   414.4665 C1            1 RES     
   25172 S2        1235.5236 -1324.2913   413.8417 S2            1 RES     
   25173 C1        1234.8052 -1323.4715   415.1541 C1            1 RES     
   25174 C1        1234.2679 -1324.3899   416.0634 C1            1 RES     
   25175 C1        1235.2701 -1327.1648   414.1365 C1            1 RES     
   25176 C1        1234.7245 -1327.9381   415.1205 C1            1 RES     
   25177 C1        1234.8636 -1329.3067   414.8683 C1            1 RES     
   25178 C1        1235.5507 -1329.5405   413.6495 C1            1 RES     
   25179 S2        1235.9297 -1328.0536   412.9010 S2            1 RES     
   25180 H3        1233.7535 -1324.1163   416.9741 H3            1 RES     
   25181 H3        1234.4972 -1330.0688   415.5395 H3            1 RES     
   25182 N4        1236.6888 -1332.1045   411.1301 N4            1 RES     
   25183 C1        1236.2783 -1330.9309   411.6899 C1            1 RES     
   25184 C1        1235.9671 -1330.8444   413.0668 C1            1 RES     
   25185 C1        1236.1187 -1332.0144   413.8327 C1            1 RES     
   25186 N4        1235.9097 -1332.0929   415.1712 N4            1 RES     
   25187 S2        1236.2877 -1333.6672   415.5039 S2            1 RES     
   25188 N4        1236.7157 -1334.2880   414.0346 N4            1 RES     
   25189 C1        1236.5668 -1333.2177   413.2175 C1            1 RES     
   25190 C1        1236.8406 -1333.2438   411.8567 C1            1 RES     
   25191 H5        1236.1844 -1330.0668   411.0464 H5            1 RES     
   25192 C0        1232.5219 -1327.0781   416.1245 C0            1 RES     
   25193 C0        1231.5283 -1328.2787   416.3095 C0            1 RES     
   25194 C0        1230.1628 -1327.9341   415.6094 C0            1 RES     
   25195 C0        1229.1641 -1326.9438   416.2785 C0            1 RES     
   25196 C0        1229.5578 -1325.4591   416.4234 C0            1 RES     
   25197 C0        1229.9575 -1324.7453   415.1177 C0            1 RES     
   25198 C0        1228.8217 -1324.6866   414.0876 C0            1 RES     
   25199 C0        1229.2582 -1323.9197   412.8412 C0            1 RES     
   25200 C0        1231.2123 -1328.7232   417.7663 C0            1 RES     
   25201 C0        1232.1971 -1329.7133   418.3813 C0            1 RES     
   25202 C0        1231.8468 -1329.9789   419.8570 C0            1 RES     
   25203 C0        1232.8528 -1330.9277   420.5272 C0            1 RES     
   25204 C0        1232.6168 -1330.9846   422.0466 C0            1 RES     
   25205 C0        1233.7049 -1331.7572   422.8152 C0            1 RES     
   25206 C0        1235.0756 -1331.0528   422.7680 C0            1 RES     
   25207 C0        1236.1081 -1331.7709   423.6310 C0            1 RES     
   25208 H6        1232.1767 -1326.2465   416.7548 H6            1 RES     
   25209 H6        1232.3543 -1326.7918   415.0629 H6            1 RES     
   25210 H6        1231.9182 -1329.1416   415.7250 H6            1 RES     
   25211 H6        1229.6032 -1328.8943   415.5425 H6            1 RES     
   25212 H6        1230.3393 -1327.6271   414.5561 H6            1 RES     
   25213 H6        1228.8899 -1327.3226   417.2856 H6            1 RES     
   25214 H6        1228.2321 -1326.9781   415.6752 H6            1 RES     
   25215 H6        1230.3666 -1325.3545   417.1653 H6            1 RES     
   25216 H6        1228.6934 -1324.9171   416.8655 H6            1 RES     
   25217 H6        1230.8402 -1325.2326   414.6644 H6            1 RES     
   25218 H6        1230.2475 -1323.7041   415.3800 H6            1 RES     
   25219 H6        1228.5266 -1325.7113   413.7804 H6            1 RES     
   25220 H6        1227.9418 -1324.1747   414.5342 H6            1 RES     
   25221 H6        1229.5443 -1322.8795   413.1066 H6            1 RES     
   25222 H6        1228.4204 -1323.8828   412.1135 H6            1 RES     
   25223 H6        1230.1243 -1324.4243   412.3618 H6            1 RES     
   25224 H6        1230.2471 -1329.2782   417.7797 H6            1 RES     
   25225 H6        1231.0859 -1327.8149   418.3961 H6            1 RES     
   25226 H6        1232.1923 -1330.6623   417.8021 H6            1 RES     
   25227 H6        1233.1898 -1329.2875   418.3289 H6            1 RES     
   25228 H6        1231.8780 -1328.9997   420.3855 H6            1 RES     
   25229 H6        1230.8212 -1330.3978   419.9511 H6            1 RES     
   25230 H6        1232.7908 -1331.9444   420.0827 H6            1 RES     
   25231 H6        1233.8638 -1330.5485   420.3340 H6            1 RES     
   25232 H6        1232.5788 -1329.9538   422.4639 H6            1 RES     
   25233 H6        1231.6296 -1331.4632   422.2297 H6            1 RES     
   25234 H6        1233.7868 -1332.7938   422.4240 H6            1 RES     
   25235 H6        1233.3849 -1331.8088   423.8789 H6            1 RES     
   25236 H6        1234.9707 -1330.0106   423.1433 H6            1 RES     
   25237 H6        1235.4661 -1331.0242   421.7337 H6            1 RES     
   25238 H6        1237.0751 -1331.2303   423.5757 H6            1 RES     
   25239 H6        1235.7761 -1331.7968   424.6910 H6            1 RES     
   25240 H6        1236.2586 -1332.8105   423.2666 H6            1 RES     
   25241 C0        1234.6937 -1327.1289   417.6848 C0            1 RES     
   25242 C0        1235.6054 -1328.2707   418.2452 C0            1 RES     
   25243 C0        1235.4385 -1328.3870   419.8004 C0            1 RES     
   25244 C0        1236.0642 -1327.3423   420.7572 C0            1 RES     
   25245 C0        1235.4565 -1325.9249   420.7792 C0            1 RES     
   25246 C0        1233.9423 -1325.8482   421.0674 C0            1 RES     
   25247 C0        1233.5322 -1326.4588   422.4139 C0            1 RES     
   25248 C0        1232.0311 -1326.2945   422.6436 C0            1 RES     
   25249 C0        1237.1300 -1328.1874   417.9405 C0            1 RES     
   25250 C0        1237.5092 -1328.3958   416.4840 C0            1 RES     
   25251 C0        1239.0219 -1328.4867   416.2789 C0            1 RES     
   25252 C0        1239.3225 -1328.7472   414.7984 C0            1 RES     
   25253 C0        1240.8306 -1328.8528   414.5415 C0            1 RES     
   25254 C0        1241.1637 -1329.1794   413.0757 C0            1 RES     
   25255 C0        1240.7124 -1328.0857   412.0945 C0            1 RES     
   25256 C0        1241.1269 -1328.4252   410.6667 C0            1 RES     
   25257 H6        1235.2060 -1326.1809   417.9240 H6            1 RES     
   25258 H6        1233.7851 -1327.1024   418.3066 H6            1 RES     
   25259 H6        1235.2346 -1329.2321   417.8392 H6            1 RES     
   25260 H6        1235.9161 -1329.3509   420.0808 H6            1 RES     
   25261 H6        1234.3704 -1328.4693   420.0633 H6            1 RES     
   25262 H6        1237.1551 -1327.2683   420.5724 H6            1 RES     
   25263 H6        1235.9580 -1327.7524   421.7845 H6            1 RES     
   25264 H6        1235.6692 -1325.4074   419.8284 H6            1 RES     
   25265 H6        1235.9885 -1325.3466   421.5656 H6            1 RES     
   25266 H6        1233.3661 -1326.3454   420.2676 H6            1 RES     
   25267 H6        1233.6565 -1324.7733   421.0616 H6            1 RES     
   25268 H6        1233.7671 -1327.5437   422.4309 H6            1 RES     
   25269 H6        1234.0828 -1325.9550   423.2373 H6            1 RES     
   25270 H6        1231.7573 -1325.2176   422.6540 H6            1 RES     
   25271 H6        1231.7491 -1326.7429   423.6188 H6            1 RES     
   25272 H6        1231.4588 -1326.8054   421.8392 H6            1 RES     
   25273 H6        1237.6250 -1329.0094   418.5045 H6            1 RES     
   25274 H6        1237.5463 -1327.2206   418.2980 H6            1 RES     
   25275 H6        1237.0745 -1329.3587   416.1495 H6            1 RES     
   25276 H6        1237.1331 -1327.5441   415.8939 H6            1 RES     
   25277 H6        1239.5018 -1327.5382   416.6037 H6            1 RES     
   25278 H6        1239.4305 -1329.3252   416.8868 H6            1 RES     
   25279 H6        1238.8346 -1329.6978   414.4866 H6            1 RES     
   25280 H6        1238.8941 -1327.9118   414.2068 H6            1 RES     
   25281 H6        1241.3295 -1327.9035   414.8347 H6            1 RES     
   25282 H6        1241.2412 -1329.6715   415.1727 H6            1 RES     
   25283 H6        1240.6958 -1330.1496   412.7973 H6            1 RES     
   25284 H6        1242.2673 -1329.2918   412.9988 H6            1 RES     
   25285 H6        1241.1726 -1327.1154   412.3814 H6            1 RES     
   25286 H6        1239.6079 -1327.9801   412.1107 H6            1 RES     
   25287 H6        1240.7889 -1327.6196   409.9812 H6            1 RES     
   25288 H6        1242.2319 -1328.5126   410.5961 H6            1 RES     
   25289 H6        1240.6620 -1329.3825   410.3480 H6            1 RES     
   25290 C0        1237.1587 -1338.3799   410.2027 C0            1 RES     
   25291 C1        1237.4137 -1336.8904   410.4671 C1            1 RES     
   25292 C1        1238.5060 -1336.4197   409.8254 C1            1 RES     
   25293 S2        1238.7548 -1334.7898   410.1032 S2            1 RES     
   25294 C1        1237.3751 -1334.6688   411.0993 C1            1 RES     
   25295 C1        1236.7379 -1335.9111   411.1976 C1            1 RES     
   25296 C1        1239.0912 -1337.4910   409.1039 C1            1 RES     
   25297 C1        1238.3805 -1338.6379   409.3125 C1            1 RES     
   25298 C1        1238.9344 -1339.7410   408.6548 C1            1 RES     
   25299 C1        1240.1078 -1339.3826   407.9427 C1            1 RES     
   25300 S2        1240.4032 -1337.7097   408.1127 S2            1 RES     
   25301 H3        1235.8369 -1336.0907   411.7673 H3            1 RES     
   25302 H3        1238.5105 -1340.7324   408.7096 H3            1 RES     
   25303 N4        1242.7811 -1340.5035   405.5316 N4            1 RES     
   25304 C1        1241.9059 -1339.7196   406.2234 C1            1 RES     
   25305 C1        1241.0288 -1340.2722   407.1855 C1            1 RES     
   25306 C1        1241.1142 -1341.6582   407.4091 C1            1 RES     
   25307 N4        1240.3820 -1342.3383   408.3272 N4            1 RES     
   25308 S2        1240.9451 -1343.8838   408.1652 S2            1 RES     
   25309 N4        1242.0904 -1343.7632   406.9815 N4            1 RES     
   25310 C1        1242.0528 -1342.4428   406.6806 C1            1 RES     
   25311 C1        1242.8759 -1341.8444   405.7362 C1            1 RES     
   25312 H5        1241.8916 -1338.6603   406.0060 H5            1 RES     
   25313 C0        1235.8256 -1338.3754   409.3610 C0            1 RES     
   25314 C0        1235.1643 -1339.5522   408.5604 C0            1 RES     
   25315 C0        1234.1868 -1338.9596   407.4804 C0            1 RES     
   25316 C0        1232.7947 -1338.4019   407.9015 C0            1 RES     
   25317 C0        1232.7243 -1337.1347   408.7787 C0            1 RES     
   25318 C0        1233.4581 -1335.8987   408.2238 C0            1 RES     
   25319 C0        1232.8893 -1335.4065   406.8864 C0            1 RES     
   25320 C0        1233.6175 -1334.1492   406.4165 C0            1 RES     
   25321 C0        1234.3754 -1340.6145   409.3783 C0            1 RES     
   25322 C0        1235.2100 -1341.7529   409.9578 C0            1 RES     
   25323 C0        1234.3406 -1342.6651   410.8427 C0            1 RES     
   25324 C0        1235.1605 -1343.7912   411.4917 C0            1 RES     
   25325 C0        1234.3228 -1344.5343   412.5469 C0            1 RES     
   25326 C0        1235.1306 -1345.5459   413.3808 C0            1 RES     
   25327 C0        1236.1808 -1344.8652   414.2814 C0            1 RES     
   25328 C0        1236.8871 -1345.8722   415.1836 C0            1 RES     
   25329 H6        1235.0587 -1337.9268   410.0080 H6            1 RES     
   25330 H6        1236.0618 -1337.6438   408.5571 H6            1 RES     
   25331 H6        1235.9582 -1340.0484   407.9589 H6            1 RES     
   25332 H6        1233.9544 -1339.7982   406.7860 H6            1 RES     
   25333 H6        1234.7151 -1338.2055   406.8583 H6            1 RES     
   25334 H6        1232.2176 -1339.2013   408.4122 H6            1 RES     
   25335 H6        1232.2448 -1338.1810   406.9621 H6            1 RES     
   25336 H6        1233.0911 -1337.3584   409.7940 H6            1 RES     
   25337 H6        1231.6526 -1336.8711   408.9142 H6            1 RES     
   25338 H6        1234.5376 -1336.1081   408.1095 H6            1 RES     
   25339 H6        1233.3527 -1335.0823   408.9717 H6            1 RES     
   25340 H6        1233.0054 -1336.1880   406.1072 H6            1 RES     
   25341 H6        1231.8093 -1335.1721   407.0063 H6            1 RES     
   25342 H6        1233.5075 -1333.3351   407.1646 H6            1 RES     
   25343 H6        1233.1858 -1333.8062   405.4527 H6            1 RES     
   25344 H6        1234.6976 -1334.3625   406.2669 H6            1 RES     
   25345 H6        1233.6584 -1341.1375   408.7058 H6            1 RES     
   25346 H6        1233.7818 -1340.0924   410.1609 H6            1 RES     
   25347 H6        1235.6773 -1342.3373   409.1354 H6            1 RES     
   25348 H6        1235.9984 -1341.3270   410.5633 H6            1 RES     
   25349 H6        1233.9107 -1342.0303   411.6498 H6            1 RES     
   25350 H6        1233.5042 -1343.1045   410.2566 H6            1 RES     
   25351 H6        1235.5366 -1344.4981   410.7211 H6            1 RES     
   25352 H6        1236.0357 -1343.3426   411.9776 H6            1 RES     
   25353 H6        1233.8674 -1343.8048   413.2530 H6            1 RES     
   25354 H6        1233.4963 -1345.0664   412.0263 H6            1 RES     
   25355 H6        1235.6147 -1346.2914   412.7144 H6            1 RES     
   25356 H6        1234.4118 -1346.0802   414.0398 H6            1 RES     
   25357 H6        1235.6821 -1344.1081   414.9265 H6            1 RES     
   25358 H6        1236.9543 -1344.3631   413.6710 H6            1 RES     
   25359 H6        1237.6270 -1345.3431   415.8184 H6            1 RES     
   25360 H6        1236.1532 -1346.3822   415.8436 H6            1 RES     
   25361 H6        1237.4204 -1346.6309   414.5702 H6            1 RES     
   25362 C0        1237.0726 -1339.0767   411.6207 C0            1 RES     
   25363 C0        1237.9026 -1340.3273   412.0635 C0            1 RES     
   25364 C0        1237.1241 -1341.1381   413.1574 C0            1 RES     
   25365 C0        1237.0162 -1340.6250   414.6146 C0            1 RES     
   25366 C0        1236.1391 -1339.3850   414.8827 C0            1 RES     
   25367 C0        1234.6756 -1339.4816   414.4024 C0            1 RES     
   25368 C0        1233.8909 -1340.6442   415.0240 C0            1 RES     
   25369 C0        1232.4429 -1340.6359   414.5379 C0            1 RES     
   25370 C0        1239.3441 -1340.0804   412.5976 C0            1 RES     
   25371 C0        1240.3433 -1339.5990   411.5591 C0            1 RES     
   25372 C0        1241.7736 -1339.5527   412.0984 C0            1 RES     
   25373 C0        1242.7266 -1339.1087   410.9828 C0            1 RES     
   25374 C0        1244.1783 -1339.0523   411.4735 C0            1 RES     
   25375 C0        1245.1692 -1338.6730   410.3598 C0            1 RES     
   25376 C0        1244.9317 -1337.2645   409.7923 C0            1 RES     
   25377 C0        1245.9806 -1336.9120   408.7430 C0            1 RES     
   25378 H6        1237.1933 -1338.3279   412.4228 H6            1 RES     
   25379 H6        1236.0085 -1339.3550   411.6771 H6            1 RES     
   25380 H6        1237.9795 -1341.0095   411.1943 H6            1 RES     
   25381 H6        1237.6514 -1342.1135   413.2380 H6            1 RES     
   25382 H6        1236.0989 -1341.3548   412.8128 H6            1 RES     
   25383 H6        1238.0302 -1340.4505   415.0284 H6            1 RES     
   25384 H6        1236.5848 -1341.4576   415.2108 H6            1 RES     
   25385 H6        1236.6056 -1338.4888   414.4397 H6            1 RES     
   25386 H6        1236.1325 -1339.2128   415.9810 H6            1 RES     
   25387 H6        1234.6300 -1339.5763   413.3034 H6            1 RES     
   25388 H6        1234.1729 -1338.5270   414.6732 H6            1 RES     
   25389 H6        1234.3466 -1341.6139   414.7334 H6            1 RES     
   25390 H6        1233.9025 -1340.5548   416.1316 H6            1 RES     
   25391 H6        1231.9432 -1339.6867   414.8280 H6            1 RES     
   25392 H6        1231.8890 -1341.4831   414.9930 H6            1 RES     
   25393 H6        1232.4058 -1340.7407   413.4319 H6            1 RES     
   25394 H6        1239.7325 -1341.0572   412.9637 H6            1 RES     
   25395 H6        1239.3262 -1339.3706   413.4528 H6            1 RES     
   25396 H6        1240.3344 -1340.3162   410.7144 H6            1 RES     
   25397 H6        1240.0628 -1338.5814   411.2416 H6            1 RES     
   25398 H6        1241.8294 -1338.8430   412.9519 H6            1 RES     
   25399 H6        1242.0717 -1340.5660   412.4506 H6            1 RES     
   25400 H6        1242.6587 -1339.8264   410.1347 H6            1 RES     
   25401 H6        1242.4049 -1338.1061   410.6324 H6            1 RES     
   25402 H6        1244.2641 -1338.3271   412.3118 H6            1 RES     
   25403 H6        1244.4637 -1340.0583   411.8527 H6            1 RES     
   25404 H6        1245.1093 -1339.4229   409.5402 H6            1 RES     
   25405 H6        1246.1928 -1338.7133   410.7926 H6            1 RES     
   25406 H6        1244.9812 -1336.5186   410.6149 H6            1 RES     
   25407 H6        1243.9347 -1337.2029   409.3089 H6            1 RES     
   25408 H6        1245.7849 -1335.8915   408.3514 H6            1 RES     
   25409 H6        1246.9968 -1336.9329   409.1910 H6            1 RES     
   25410 H6        1245.9373 -1337.6321   407.8981 H6            1 RES     
   25411 C0        1245.0768 -1345.6687   402.6142 C0            1 RES     
   25412 C1        1244.8334 -1344.4544   403.5195 C1            1 RES     
   25413 C1        1245.9482 -1343.7196   403.7284 C1            1 RES     
   25414 S2        1245.6602 -1342.3863   404.6953 S2            1 RES     
   25415 C1        1244.0032 -1342.7603   404.8528 C1            1 RES     
   25416 C1        1243.7001 -1343.9269   404.1414 C1            1 RES     
   25417 C1        1247.0204 -1344.3351   403.0340 C1            1 RES     
   25418 C1        1246.5836 -1345.4683   402.4103 C1            1 RES     
   25419 C1        1247.6089 -1346.1418   401.7385 C1            1 RES     
   25420 C1        1248.8511 -1345.4734   401.8883 C1            1 RES     
   25421 S2        1248.6395 -1344.0520   402.8100 S2            1 RES     
   25422 H3        1242.7137 -1344.3653   404.0812 H3            1 RES     
   25423 H3        1247.4509 -1347.0602   401.1934 H3            1 RES     
   25424 N4        1252.4768 -1345.3216   400.8644 N4            1 RES     
   25425 C1        1251.2321 -1344.9554   401.2838 C1            1 RES     
   25426 C1        1250.1887 -1345.9032   401.3992 C1            1 RES     
   25427 C1        1250.4979 -1347.2382   401.0820 C1            1 RES     
   25428 N4        1249.6301 -1348.2764   401.1841 N4            1 RES     
   25429 S2        1250.5581 -1349.5684   400.7352 S2            1 RES     
   25430 N4        1252.0326 -1348.8994   400.4098 N4            1 RES     
   25431 C1        1251.8136 -1347.5869   400.6644 C1            1 RES     
   25432 C1        1252.7915 -1346.6075   400.5543 C1            1 RES     
   25433 H5        1251.0601 -1343.9130   401.5145 H5            1 RES     
   25434 C0        1244.2685 -1345.3145   401.3077 C0            1 RES     
   25435 C0        1244.3103 -1346.0169   399.9049 C0            1 RES     
   25436 C0        1243.7740 -1345.0224   398.8110 C0            1 RES     
   25437 C0        1242.2466 -1344.7474   398.6796 C0            1 RES     
   25438 C0        1241.5113 -1344.0157   399.8218 C0            1 RES     
   25439 C0        1242.0943 -1342.6460   400.2195 C0            1 RES     
   25440 C0        1242.0481 -1341.6154   399.0837 C0            1 RES     
   25441 C0        1242.5850 -1340.2652   399.5535 C0            1 RES     
   25442 C0        1243.5264 -1347.3518   399.7536 C0            1 RES     
   25443 C0        1244.2801 -1348.6099   400.1750 C0            1 RES     
   25444 C0        1243.3616 -1349.8432   400.0951 C0            1 RES     
   25445 C0        1244.0701 -1351.1221   400.5687 C0            1 RES     
   25446 C0        1243.0669 -1352.2809   400.7029 C0            1 RES     
   25447 C0        1243.6590 -1353.5415   401.3598 C0            1 RES     
   25448 C0        1244.0324 -1353.3179   402.8389 C0            1 RES     
   25449 C0        1244.5058 -1354.6075   403.5018 C0            1 RES     
   25450 H6        1243.2172 -1345.2247   401.6154 H6            1 RES     
   25451 H6        1244.6423 -1344.2933   401.0739 H6            1 RES     
   25452 H6        1245.3773 -1346.1691   399.6277 H6            1 RES     
   25453 H6        1244.0651 -1345.4614   397.8301 H6            1 RES     
   25454 H6        1244.3204 -1344.0567   398.8704 H6            1 RES     
   25455 H6        1241.7155 -1345.7042   398.4917 H6            1 RES     
   25456 H6        1242.1124 -1344.1381   397.7606 H6            1 RES     
   25457 H6        1241.4539 -1344.6660   400.7103 H6            1 RES     
   25458 H6        1240.4549 -1343.8664   399.5088 H6            1 RES     
   25459 H6        1243.1357 -1342.7564   400.5738 H6            1 RES     
   25460 H6        1241.4906 -1342.2587   401.0696 H6            1 RES     
   25461 H6        1242.6661 -1341.9572   398.2277 H6            1 RES     
   25462 H6        1240.9980 -1341.4853   398.7432 H6            1 RES     
   25463 H6        1241.9778 -1339.8802   400.4006 H6            1 RES     
   25464 H6        1242.5355 -1339.5335   398.7199 H6            1 RES     
   25465 H6        1243.6428 -1340.3631   399.8790 H6            1 RES     
   25466 H6        1243.3098 -1347.5305   398.6761 H6            1 RES     
   25467 H6        1242.5514 -1347.2538   400.2801 H6            1 RES     
   25468 H6        1245.1764 -1348.7484   399.5319 H6            1 RES     
   25469 H6        1244.6105 -1348.4859   401.1973 H6            1 RES     
   25470 H6        1242.4926 -1349.6520   400.7639 H6            1 RES     
   25471 H6        1242.9842 -1349.9891   399.0595 H6            1 RES     
   25472 H6        1244.8939 -1351.3953   399.8747 H6            1 RES     
   25473 H6        1244.5218 -1350.9218   401.5481 H6            1 RES     
   25474 H6        1242.1958 -1351.9601   401.3165 H6            1 RES     
   25475 H6        1242.6923 -1352.5388   399.6878 H6            1 RES     
   25476 H6        1244.5421 -1353.8938   400.7850 H6            1 RES     
   25477 H6        1242.8783 -1354.3324   401.3214 H6            1 RES     
   25478 H6        1243.1429 -1352.9459   403.3943 H6            1 RES     
   25479 H6        1244.8479 -1352.5765   402.9296 H6            1 RES     
   25480 H6        1244.7569 -1354.4060   404.5632 H6            1 RES     
   25481 H6        1243.7056 -1355.3775   403.4663 H6            1 RES     
   25482 H6        1245.4124 -1354.9945   402.9874 H6            1 RES     
   25483 C0        1244.5652 -1346.9332   403.4161 C0            1 RES     
   25484 C0        1245.3996 -1348.2295   403.6848 C0            1 RES     
   25485 C0        1244.4478 -1349.4649   403.8520 C0            1 RES     
   25486 C0        1243.6129 -1349.6688   405.1404 C0            1 RES     
   25487 C0        1242.4381 -1348.7044   405.4023 C0            1 RES     
   25488 C0        1241.3864 -1348.6068   404.2770 C0            1 RES     
   25489 C0        1240.7132 -1349.9424   403.9351 C0            1 RES     
   25490 C0        1239.6526 -1349.7482   402.8532 C0            1 RES     
   25491 C0        1246.3736 -1348.2180   404.8995 C0            1 RES     
   25492 C0        1247.5730 -1347.2964   404.7561 C0            1 RES     
   25493 C0        1248.5826 -1347.4663   405.8920 C0            1 RES     
   25494 C0        1249.7833 -1346.5442   405.6513 C0            1 RES     
   25495 C0        1250.8298 -1346.6827   406.7635 C0            1 RES     
   25496 C0        1252.0782 -1345.8182   406.5177 C0            1 RES     
   25497 C0        1251.7768 -1344.3111   406.4999 C0            1 RES     
   25498 C0        1253.0550 -1343.4985   406.3225 C0            1 RES     
   25499 H6        1244.1522 -1346.6255   404.3924 H6            1 RES     
   25500 H6        1243.6778 -1347.2311   402.8359 H6            1 RES     
   25501 H6        1245.9980 -1348.4429   402.7775 H6            1 RES     
   25502 H6        1245.1061 -1350.3590   403.7957 H6            1 RES     
   25503 H6        1243.7500 -1349.5257   403.0000 H6            1 RES     
   25504 H6        1244.2816 -1349.6772   406.0250 H6            1 RES     
   25505 H6        1243.1808 -1350.6906   405.0775 H6            1 RES     
   25506 H6        1242.8207 -1347.6944   405.6269 H6            1 RES     
   25507 H6        1241.9252 -1349.0477   406.3268 H6            1 RES     
   25508 H6        1241.8356 -1348.1953   403.3562 H6            1 RES     
   25509 H6        1240.6053 -1347.8896   404.6129 H6            1 RES     
   25510 H6        1241.4653 -1350.6652   403.5550 H6            1 RES     
   25511 H6        1240.2319 -1350.3633   404.8440 H6            1 RES     
   25512 H6        1238.8673 -1349.0445   403.2037 H6            1 RES     
   25513 H6        1239.1769 -1350.7221   402.6145 H6            1 RES     
   25514 H6        1240.1147 -1349.3424   401.9272 H6            1 RES     
   25515 H6        1246.7896 -1349.2456   404.9990 H6            1 RES     
   25516 H6        1245.8262 -1347.9723   405.8352 H6            1 RES     
   25517 H6        1248.0943 -1347.5540   403.8127 H6            1 RES     
   25518 H6        1247.2209 -1346.2519   404.7629 H6            1 RES     
   25519 H6        1248.1003 -1347.2182   406.8622 H6            1 RES     
   25520 H6        1248.9344 -1348.5222   405.9228 H6            1 RES     
   25521 H6        1250.2546 -1346.8022   404.6765 H6            1 RES     
   25522 H6        1249.4127 -1345.4992   405.6065 H6            1 RES     
   25523 H6        1250.3765 -1346.4131   407.7423 H6            1 RES     
   25524 H6        1251.1573 -1347.7446   406.8120 H6            1 RES     
   25525 H6        1252.5520 -1346.1175   405.5567 H6            1 RES     
   25526 H6        1252.7983 -1346.0264   407.3392 H6            1 RES     
   25527 H6        1251.2936 -1344.0170   407.4567 H6            1 RES     
   25528 H6        1251.0964 -1344.0604   405.6599 H6            1 RES     
   25529 H6        1252.8077 -1342.4159   406.3135 H6            1 RES     
   25530 H6        1253.7575 -1343.6964   407.1597 H6            1 RES     
   25531 H6        1253.5470 -1343.7595   405.3612 H6            1 RES     
   25532 C0        1256.9487 -1348.5553   397.7013 C0            1 RES     
   25533 C1        1256.0630 -1347.8876   398.7610 C1            1 RES     
   25534 C1        1256.7736 -1347.3014   399.7500 C1            1 RES     
   25535 S2        1255.7947 -1346.5564   400.8822 S2            1 RES     
   25536 C1        1254.3691 -1346.9989   400.0563 C1            1 RES     
   25537 C1        1254.6835 -1347.7243   398.9014 C1            1 RES     
   25538 C1        1258.1515 -1347.5117   399.4891 C1            1 RES     
   25539 C1        1258.3040 -1348.2501   398.3509 C1            1 RES     
   25540 C1        1259.6450 -1348.5234   398.0627 C1            1 RES     
   25541 C1        1260.5079 -1347.9669   399.0416 C1            1 RES     
   25542 S2        1259.5938 -1347.1211   400.2094 S2            1 RES     
   25543 H3        1253.9516 -1348.1105   398.2058 H3            1 RES     
   25544 H3        1259.9568 -1349.0994   397.2044 H3            1 RES     
   25545 N4        1264.0740 -1347.2857   400.0591 N4            1 RES     
   25546 C1        1262.7215 -1347.1772   399.9242 C1            1 RES     
   25547 C1        1261.9862 -1348.0983   399.1424 C1            1 RES     
   25548 C1        1262.7084 -1349.1381   398.5293 C1            1 RES     
   25549 N4        1262.1536 -1350.1299   397.7876 N4            1 RES     
   25550 S2        1263.4621 -1351.0575   397.3886 S2            1 RES     
   25551 N4        1264.7294 -1350.2803   398.1079 N4            1 RES     
   25552 C1        1264.1180 -1349.2302   398.7069 C1            1 RES     
   25553 C1        1264.7863 -1348.2848   399.4732 C1            1 RES     
   25554 H5        1262.2256 -1346.3560   400.4233 H5            1 RES     
   25555 C0        1256.7130 -1347.6672   396.4201 C0            1 RES     
   25556 C0        1257.5121 -1347.6581   395.0694 C0            1 RES     
   25557 C0        1257.2715 -1346.2890   394.3339 C0            1 RES     
   25558 C0        1255.9275 -1346.0192   393.5945 C0            1 RES     
   25559 C0        1254.6264 -1345.9002   394.4151 C0            1 RES     
   25560 C0        1254.6412 -1344.8454   395.5382 C0            1 RES     
   25561 C0        1254.8382 -1343.4140   395.0220 C0            1 RES     
   25562 C0        1254.7868 -1342.4103   396.1718 C0            1 RES     
   25563 C0        1257.2087 -1348.7979   394.0553 C0            1 RES     
   25564 C0        1257.9873 -1350.0930   394.2674 C0            1 RES     
   25565 C0        1257.5119 -1351.1775   393.2830 C0            1 RES     
   25566 C0        1258.2338 -1352.5157   393.5060 C0            1 RES     
   25567 C0        1257.5758 -1353.6325   392.6770 C0            1 RES     
   25568 C0        1258.1139 -1355.0401   392.9944 C0            1 RES     
   25569 C0        1257.7589 -1355.5010   394.4222 C0            1 RES     
   25570 C0        1258.1976 -1356.9399   394.6753 C0            1 RES     
   25571 H6        1255.6426 -1347.7502   396.1852 H6            1 RES     
   25572 H6        1256.8961 -1346.6424   396.8120 H6            1 RES     
   25573 H6        1258.5980 -1347.6442   395.3119 H6            1 RES     
   25574 H6        1258.0467 -1346.2303   393.5369 H6            1 RES     
   25575 H6        1257.4942 -1345.4423   395.0183 H6            1 RES     
   25576 H6        1255.7708 -1346.7996   392.8203 H6            1 RES     
   25577 H6        1256.0557 -1345.0635   393.0432 H6            1 RES     
   25578 H6        1254.3535 -1346.8830   394.8335 H6            1 RES     
   25579 H6        1253.8008 -1345.6496   393.7136 H6            1 RES     
   25580 H6        1255.4269 -1345.0803   396.2797 H6            1 RES     
   25581 H6        1253.6609 -1344.8983   396.0608 H6            1 RES     
   25582 H6        1255.8227 -1343.3175   394.5193 H6            1 RES     
   25583 H6        1254.0343 -1343.1679   394.2946 H6            1 RES     
   25584 H6        1253.8052 -1342.4639   396.6895 H6            1 RES     
   25585 H6        1254.9236 -1341.3820   395.7758 H6            1 RES     
   25586 H6        1255.5961 -1342.6206   396.9035 H6            1 RES     
   25587 H6        1257.5194 -1348.4749   393.0360 H6            1 RES     
   25588 H6        1256.1101 -1348.9708   394.0323 H6            1 RES     
   25589 H6        1259.0763 -1349.9053   394.1451 H6            1 RES     
   25590 H6        1257.8125 -1350.4372   395.2776 H6            1 RES     
   25591 H6        1256.4233 -1351.3293   393.4589 H6            1 RES     
   25592 H6        1257.6565 -1350.8479   392.2310 H6            1 RES     
   25593 H6        1259.3131 -1352.4267   393.2567 H6            1 RES     
   25594 H6        1258.1650 -1352.7697   394.5709 H6            1 RES     
   25595 H6        1256.4780 -1353.6439   392.8587 H6            1 RES     
   25596 H6        1257.7408 -1353.4120   391.5994 H6            1 RES     
   25597 H6        1259.2131 -1355.0741   392.8369 H6            1 RES     
   25598 H6        1257.6360 -1355.7457   392.2800 H6            1 RES     
   25599 H6        1256.6576 -1355.4408   394.5689 H6            1 RES     
   25600 H6        1258.2567 -1354.8623   395.1754 H6            1 RES     
   25601 H6        1257.9184 -1357.2344   395.7075 H6            1 RES     
   25602 H6        1257.6966 -1357.6286   393.9618 H6            1 RES     
   25603 H6        1259.3000 -1357.0316   394.5633 H6            1 RES     
   25604 C0        1256.4619 -1350.0571   397.5943 C0            1 RES     
   25605 C0        1257.3849 -1351.3154   397.7111 C0            1 RES     
   25606 C0        1256.7759 -1352.5142   396.9036 C0            1 RES     
   25607 C0        1255.5480 -1353.2976   397.4298 C0            1 RES     
   25608 C0        1254.1812 -1352.5831   397.4359 C0            1 RES     
   25609 C0        1253.7170 -1352.0112   396.0797 C0            1 RES     
   25610 C0        1253.5914 -1353.0628   394.9697 C0            1 RES     
   25611 C0        1253.0780 -1352.4246   393.6804 C0            1 RES     
   25612 C0        1257.7173 -1351.8322   399.1417 C0            1 RES     
   25613 C0        1258.6070 -1350.9182   399.9673 C0            1 RES     
   25614 C0        1259.0472 -1351.5603   401.2836 C0            1 RES     
   25615 C0        1259.9792 -1350.6018   402.0337 C0            1 RES     
   25616 C0        1260.4542 -1351.2044   403.3614 C0            1 RES     
   25617 C0        1261.4437 -1350.2940   404.1084 C0            1 RES     
   25618 C0        1260.8298 -1348.9491   404.5288 C0            1 RES     
   25619 C0        1261.8286 -1348.1151   405.3240 C0            1 RES     
   25620 H6        1255.6134 -1350.2336   398.2780 H6            1 RES     
   25621 H6        1256.0037 -1350.0806   396.5932 H6            1 RES     
   25622 H6        1258.3436 -1351.0818   397.2080 H6            1 RES     
   25623 H6        1257.5875 -1353.2709   396.8348 H6            1 RES     
   25624 H6        1256.5425 -1352.1991   395.8727 H6            1 RES     
   25625 H6        1255.7587 -1353.6899   398.4455 H6            1 RES     
   25626 H6        1255.4401 -1354.1902   396.7767 H6            1 RES     
   25627 H6        1254.1801 -1351.7754   398.1872 H6            1 RES     
   25628 H6        1253.4222 -1353.3190   397.7795 H6            1 RES     
   25629 H6        1254.4025 -1351.2177   395.7344 H6            1 RES     
   25630 H6        1252.7215 -1351.5414   396.2400 H6            1 RES     
   25631 H6        1254.5817 -1353.5182   394.7585 H6            1 RES     
   25632 H6        1252.8851 -1353.8601   395.2865 H6            1 RES     
   25633 H6        1252.0758 -1351.9736   393.8448 H6            1 RES     
   25634 H6        1252.9952 -1353.1959   392.8866 H6            1 RES     
   25635 H6        1253.7784 -1351.6336   393.3350 H6            1 RES     
   25636 H6        1258.2827 -1352.7839   399.0260 H6            1 RES     
   25637 H6        1256.7834 -1352.0487   399.7043 H6            1 RES     
   25638 H6        1259.5242 -1350.7094   399.3814 H6            1 RES     
   25639 H6        1258.0482 -1349.9980   400.2040 H6            1 RES     
   25640 H6        1258.1549 -1351.7888   401.9058 H6            1 RES     
   25641 H6        1259.5924 -1352.5077   401.0717 H6            1 RES     
   25642 H6        1260.8661 -1350.3804   401.3987 H6            1 RES     
   25643 H6        1259.4261 -1349.6583   402.2211 H6            1 RES     
   25644 H6        1259.5785 -1351.4170   404.0126 H6            1 RES     
   25645 H6        1260.9721 -1352.1657   403.1493 H6            1 RES     
   25646 H6        1262.3368 -1350.1155   403.4695 H6            1 RES     
   25647 H6        1261.7736 -1350.8347   405.0225 H6            1 RES     
   25648 H6        1259.9315 -1349.1305   405.1578 H6            1 RES     
   25649 H6        1260.5324 -1348.3612   403.6358 H6            1 RES     
   25650 H6        1261.3590 -1347.1514   405.6139 H6            1 RES     
   25651 H6        1262.1339 -1348.6541   406.2458 H6            1 RES     
   25652 H6        1262.7286 -1347.9018   404.7085 H6            1 RES     
   25653 C0        1270.0925 -1348.6365   398.5052 C0            1 RES     
   25654 C1        1268.7101 -1348.5405   399.1634 C1            1 RES     
   25655 C1        1268.7717 -1348.4489   400.5103 C1            1 RES     
   25656 S2        1267.2586 -1348.3190   401.2098 S2            1 RES     
   25657 C1        1266.4690 -1348.3726   399.6985 C1            1 RES     
   25658 C1        1267.4065 -1348.4900   398.6659 C1            1 RES     
   25659 C1        1270.1362 -1348.4870   400.8944 C1            1 RES     
   25660 C1        1270.9281 -1348.6272   399.7912 C1            1 RES     
   25661 C1        1272.2870 -1348.7099   400.1116 C1            1 RES     
   25662 C1        1272.4930 -1348.6366   401.5132 C1            1 RES     
   25663 S2        1270.9976 -1348.4315   402.3109 S2            1 RES     
   25664 H3        1267.1541 -1348.5364   397.6157 H3            1 RES     
   25665 H3        1273.0607 -1348.8283   399.3679 H3            1 RES     
   25666 N4        1275.0147 -1348.4080   404.3070 N4            1 RES     
   25667 C1        1273.8645 -1348.2812   403.5857 C1            1 RES     
   25668 C1        1273.7730 -1348.7657   402.2602 C1            1 RES     
   25669 C1        1274.9113 -1349.3991   401.7295 C1            1 RES     
   25670 N4        1274.9773 -1349.9606   400.4959 N4            1 RES     
   25671 S2        1276.5103 -1350.5775   400.4614 S2            1 RES     
   25672 N4        1277.1274 -1350.1808   401.9410 N4            1 RES     
   25673 C1        1276.0893 -1349.5293   402.5184 C1            1 RES     
   25674 C1        1276.1231 -1349.0176   403.8086 C1            1 RES     
   25675 H5        1273.0242 -1347.7860   404.0526 H5            1 RES     
   25676 C0        1270.2194 -1347.2707   397.7280 C0            1 RES     
   25677 C0        1271.4888 -1346.6336   397.0604 C0            1 RES     
   25678 C0        1271.2654 -1345.0857   396.8942 C0            1 RES     
   25679 C0        1270.3410 -1344.5415   395.7649 C0            1 RES     
   25680 C0        1268.8276 -1344.8361   395.8221 C0            1 RES     
   25681 C0        1268.1131 -1344.4032   397.1167 C0            1 RES     
   25682 C0        1268.1641 -1342.8890   397.3591 C0            1 RES     
   25683 C0        1267.3925 -1342.5151   398.6229 C0            1 RES     
   25684 C0        1271.9252 -1347.1981   395.6783 C0            1 RES     
   25685 C0        1272.8231 -1348.4310   395.7239 C0            1 RES     
   25686 C0        1273.0835 -1348.9637   394.3028 C0            1 RES     
   25687 C0        1273.9376 -1350.2413   394.3129 C0            1 RES     
   25688 C0        1273.9801 -1350.8772   392.9125 C0            1 RES     
   25689 C0        1274.6501 -1352.2635   392.8804 C0            1 RES     
   25690 C0        1273.8433 -1353.3282   393.6503 C0            1 RES     
   25691 C0        1274.4611 -1354.7155   393.5075 C0            1 RES     
   25692 H6        1269.4037 -1347.2629   396.9915 H6            1 RES     
   25693 H6        1269.9694 -1346.5300   398.5193 H6            1 RES     
   25694 H6        1272.3312 -1346.7060   397.7838 H6            1 RES     
   25695 H6        1272.2670 -1344.6552   396.6684 H6            1 RES     
   25696 H6        1270.9681 -1344.6352   397.8655 H6            1 RES     
   25697 H6        1270.7183 -1344.8907   394.7807 H6            1 RES     
   25698 H6        1270.4599 -1343.4372   395.7631 H6            1 RES     
   25699 H6        1268.6453 -1345.9079   395.6389 H6            1 RES     
   25700 H6        1268.3446 -1344.3144   394.9672 H6            1 RES     
   25701 H6        1268.5404 -1344.9300   397.9897 H6            1 RES     
   25702 H6        1267.0473 -1344.7091   397.0298 H6            1 RES     
   25703 H6        1269.2147 -1342.5531   397.4805 H6            1 RES     
   25704 H6        1267.7121 -1342.3590   396.4928 H6            1 RES     
   25705 H6        1266.3279 -1342.8194   398.5312 H6            1 RES     
   25706 H6        1267.4357 -1341.4161   398.7750 H6            1 RES     
   25707 H6        1267.8388 -1343.0150   399.5091 H6            1 RES     
   25708 H6        1272.5526 -1346.4421   395.1542 H6            1 RES     
   25709 H6        1271.0162 -1347.3670   395.0596 H6            1 RES     
   25710 H6        1273.7818 -1348.1835   396.2297 H6            1 RES     
   25711 H6        1272.3234 -1349.1987   396.2987 H6            1 RES     
   25712 H6        1272.0939 -1349.2034   393.8532 H6            1 RES     
   25713 H6        1273.5781 -1348.1908   393.6750 H6            1 RES     
   25714 H6        1274.9652 -1350.0245   394.6762 H6            1 RES     
   25715 H6        1273.4857 -1350.9509   395.0168 H6            1 RES     
   25716 H6        1272.9467 -1350.9945   392.5170 H6            1 RES     
   25717 H6        1274.5294 -1350.1895   392.2323 H6            1 RES     
   25718 H6        1275.6853 -1352.1975   393.2780 H6            1 RES     
   25719 H6        1274.7036 -1352.5804   391.8159 H6            1 RES     
   25720 H6        1272.8045 -1353.3660   393.2533 H6            1 RES     
   25721 H6        1273.8066 -1353.0880   394.7291 H6            1 RES     
   25722 H6        1273.8490 -1355.4513   394.0680 H6            1 RES     
   25723 H6        1274.4900 -1355.0184   392.4389 H6            1 RES     
   25724 H6        1275.4936 -1354.7215   393.9202 H6            1 RES     
   25725 C0        1270.0695 -1349.9383   397.6060 C0            1 RES     
   25726 C0        1271.1254 -1351.0919   397.6613 C0            1 RES     
   25727 C0        1271.2211 -1351.8096   396.2700 C0            1 RES     
   25728 C0        1270.1112 -1352.7741   395.7840 C0            1 RES     
   25729 C0        1268.7447 -1352.1709   395.3998 C0            1 RES     
   25730 C0        1268.7789 -1351.0583   394.3308 C0            1 RES     
   25731 C0        1269.3904 -1351.4969   392.9939 C0            1 RES     
   25732 C0        1269.3376 -1350.3566   391.9789 C0            1 RES     
   25733 C0        1270.9313 -1352.1920   398.7458 C0            1 RES     
   25734 C0        1271.1407 -1351.7301   400.1781 C0            1 RES     
   25735 C0        1271.1191 -1352.8878   401.1770 C0            1 RES     
   25736 C0        1271.3871 -1352.3512   402.5878 C0            1 RES     
   25737 C0        1271.3816 -1353.4779   403.6278 C0            1 RES     
   25738 C0        1271.7126 -1352.9814   405.0456 C0            1 RES     
   25739 C0        1270.6781 -1351.9863   405.5952 C0            1 RES     
   25740 C0        1271.0148 -1351.5795   407.0258 C0            1 RES     
   25741 H6        1269.0799 -1350.4242   397.6619 H6            1 RES     
   25742 H6        1270.0998 -1349.5170   396.5890 H6            1 RES     
   25743 H6        1272.1210 -1350.6343   397.8227 H6            1 RES     
   25744 H6        1272.1392 -1352.4347   396.3188 H6            1 RES     
   25745 H6        1271.3799 -1351.0677   395.4693 H6            1 RES     
   25746 H6        1269.9572 -1353.5783   396.5319 H6            1 RES     
   25747 H6        1270.5063 -1353.2770   394.8753 H6            1 RES     
   25748 H6        1268.2327 -1351.7905   396.2999 H6            1 RES     
   25749 H6        1268.1105 -1352.9998   395.0169 H6            1 RES     
   25750 H6        1269.3358 -1350.1790   394.6990 H6            1 RES     
   25751 H6        1267.7295 -1350.7347   394.1537 H6            1 RES     
   25752 H6        1270.4535 -1351.7848   393.1339 H6            1 RES     
   25753 H6        1268.8284 -1352.3671   392.5918 H6            1 RES     
   25754 H6        1268.2850 -1350.0517   391.7947 H6            1 RES     
   25755 H6        1269.7856 -1350.6872   391.0188 H6            1 RES     
   25756 H6        1269.9081 -1349.4791   392.3532 H6            1 RES     
   25757 H6        1271.7006 -1352.9754   398.5631 H6            1 RES     
   25758 H6        1269.9280 -1352.6608   398.6498 H6            1 RES     
   25759 H6        1272.1412 -1351.2581   400.2448 H6            1 RES     
   25760 H6        1270.3334 -1351.0295   400.4468 H6            1 RES     
   25761 H6        1270.1298 -1353.3933   401.1434 H6            1 RES     
   25762 H6        1271.9106 -1353.6243   400.9108 H6            1 RES     
   25763 H6        1272.3789 -1351.8463   402.6061 H6            1 RES     
   25764 H6        1270.6000 -1351.6073   402.8296 H6            1 RES     
   25765 H6        1270.3907 -1353.9820   403.6312 H6            1 RES     
   25766 H6        1272.1526 -1354.2273   403.3428 H6            1 RES     
   25767 H6        1272.7217 -1352.5130   405.0473 H6            1 RES     
   25768 H6        1271.7412 -1353.8693   405.7146 H6            1 RES     
   25769 H6        1269.6693 -1352.4530   405.5821 H6            1 RES     
   25770 H6        1270.6576 -1351.0652   404.9768 H6            1 RES     
   25771 H6        1270.2525 -1350.8621   407.3964 H6            1 RES     
   25772 H6        1271.0184 -1352.4700   407.6896 H6            1 RES     
   25773 H6        1272.0118 -1351.0906   407.0626 H6            1 RES     
   25774 C0        1281.2534 -1348.7724   405.4928 C0            1 RES     
   25775 C1        1279.7435 -1349.0160   405.3741 C1            1 RES     
   25776 C1        1279.2037 -1349.5419   406.4959 C1            1 RES     
   25777 S2        1277.5540 -1349.7769   406.3592 S2            1 RES     
   25778 C1        1277.5184 -1349.1593   404.7694 C1            1 RES     
   25779 C1        1278.8038 -1348.7757   404.3698 C1            1 RES     
   25780 C1        1280.2417 -1349.7185   407.4456 C1            1 RES     
   25781 C1        1281.4353 -1349.3265   406.9112 C1            1 RES     
   25782 C1        1282.5062 -1349.5141   407.7911 C1            1 RES     
   25783 C1        1282.0736 -1350.0779   409.0188 C1            1 RES     
   25784 S2        1280.3798 -1350.2898   408.9968 S2            1 RES     
   25785 H3        1279.0402 -1348.3480   403.4055 H3            1 RES     
   25786 H3        1283.5260 -1349.2657   407.5381 H3            1 RES     
   25787 N4        1283.0362 -1351.0798   412.5240 N4            1 RES     
   25788 C1        1282.3075 -1350.6668   411.4481 C1            1 RES     
   25789 C1        1282.9055 -1350.5015   410.1771 C1            1 RES     
   25790 C1        1284.2758 -1350.8003   410.0700 C1            1 RES     
   25791 N4        1284.9906 -1350.7417   408.9181 N4            1 RES     
   25792 S2        1286.4912 -1351.2411   409.3984 S2            1 RES     
   25793 N4        1286.3078 -1351.5423   411.0118 N4            1 RES     
   25794 C1        1285.0009 -1351.2463   411.2112 C1            1 RES     
   25795 C1        1284.3611 -1351.3727   412.4369 C1            1 RES     
   25796 H5        1281.2574 -1350.4556   411.5967 H5            1 RES     
   25797 C0        1281.3696 -1347.2002   405.4711 C0            1 RES     
   25798 C0        1282.6107 -1346.3013   405.8099 C0            1 RES     
   25799 C0        1282.1182 -1344.8511   406.1675 C0            1 RES     
   25800 C0        1281.6607 -1343.8763   405.0422 C0            1 RES     
   25801 C0        1280.3843 -1344.1994   404.2379 C0            1 RES     
   25802 C0        1279.1074 -1344.4152   405.0730 C0            1 RES     
   25803 C0        1278.6892 -1343.1735   405.8714 C0            1 RES     
   25804 C0        1277.3897 -1343.4292   406.6318 C0            1 RES     
   25805 C0        1283.7129 -1346.1697   404.7203 C0            1 RES     
   25806 C0        1284.7711 -1347.2691   404.7175 C0            1 RES     
   25807 C0        1285.7285 -1347.0955   403.5240 C0            1 RES     
   25808 C0        1286.7740 -1348.2197   403.4547 C0            1 RES     
   25809 C0        1287.5569 -1348.1525   402.1318 C0            1 RES     
   25810 C0        1288.4853 -1349.3587   401.8981 C0            1 RES     
   25811 C0        1287.7067 -1350.6746   401.6995 C0            1 RES     
   25812 C0        1288.6368 -1351.8329   401.3532 C0            1 RES     
   25813 H6        1280.9678 -1346.8788   404.4999 H6            1 RES     
   25814 H6        1280.6393 -1346.9033   406.2558 H6            1 RES     
   25815 H6        1283.0568 -1346.6737   406.7589 H6            1 RES     
   25816 H6        1282.9868 -1344.3423   406.6431 H6            1 RES     
   25817 H6        1281.3390 -1344.8954   406.9585 H6            1 RES     
   25818 H6        1282.4911 -1343.7341   404.3190 H6            1 RES     
   25819 H6        1281.5028 -1342.8882   405.5241 H6            1 RES     
   25820 H6        1280.5574 -1345.0763   403.5926 H6            1 RES     
   25821 H6        1280.2013 -1343.3586   403.5336 H6            1 RES     
   25822 H6        1279.2354 -1345.2699   405.7624 H6            1 RES     
   25823 H6        1278.2859 -1344.6729   404.3689 H6            1 RES     
   25824 H6        1279.4757 -1342.9050   406.6067 H6            1 RES     
   25825 H6        1278.5362 -1342.3195   405.1764 H6            1 RES     
   25826 H6        1276.5708 -1343.6834   405.9252 H6            1 RES     
   25827 H6        1277.1016 -1342.5171   407.1956 H6            1 RES     
   25828 H6        1277.5222 -1344.2655   407.3512 H6            1 RES     
   25829 H6        1284.3038 -1345.2443   404.9055 H6            1 RES     
   25830 H6        1283.2216 -1346.0612   403.7282 H6            1 RES     
   25831 H6        1285.3351 -1347.2552   405.6755 H6            1 RES     
   25832 H6        1284.2729 -1348.2250   404.6296 H6            1 RES     
   25833 H6        1285.1117 -1347.1285   402.5980 H6            1 RES     
   25834 H6        1286.2435 -1346.1112   403.5698 H6            1 RES     
   25835 H6        1287.4660 -1348.1672   404.3226 H6            1 RES     
   25836 H6        1286.2491 -1349.1810   403.5138 H6            1 RES     
   25837 H6        1286.8498 -1348.1019   401.2741 H6            1 RES     
   25838 H6        1288.1621 -1347.2192   402.1303 H6            1 RES     
   25839 H6        1289.2052 -1349.4561   402.7386 H6            1 RES     
   25840 H6        1289.0593 -1349.1587   400.9670 H6            1 RES     
   25841 H6        1286.9767 -1350.5524   400.8687 H6            1 RES     
   25842 H6        1287.1595 -1350.9491   402.6205 H6            1 RES     
   25843 H6        1288.0389 -1352.7564   401.2118 H6            1 RES     
   25844 H6        1289.1877 -1351.6191   400.4123 H6            1 RES     
   25845 H6        1289.3650 -1352.0013   402.1764 H6            1 RES     
   25846 C0        1281.9245 -1349.5270   404.2746 C0            1 RES     
   25847 C0        1283.0977 -1350.5565   404.3865 C0            1 RES     
   25848 C0        1283.9427 -1350.5651   403.0652 C0            1 RES     
   25849 C0        1283.4085 -1351.2306   401.7728 C0            1 RES     
   25850 C0        1282.2344 -1350.5503   401.0398 C0            1 RES     
   25851 C0        1282.4537 -1349.0741   400.6467 C0            1 RES     
   25852 C0        1283.6598 -1348.8466   399.7262 C0            1 RES     
   25853 C0        1283.7735 -1347.3721   399.3438 C0            1 RES     
   25854 C0        1282.7292 -1352.0322   404.7190 C0            1 RES     
   25855 C0        1282.1943 -1352.2633   406.1222 C0            1 RES     
   25856 C0        1282.0265 -1353.7477   406.4491 C0            1 RES     
   25857 C0        1281.5341 -1353.9010   407.8927 C0            1 RES     
   25858 C0        1281.3556 -1355.3761   408.2717 C0            1 RES     
   25859 C0        1280.9248 -1355.5670   409.7360 C0            1 RES     
   25860 C0        1279.5512 -1354.9519   410.0478 C0            1 RES     
   25861 C0        1279.1413 -1355.2284   411.4904 C0            1 RES     
   25862 H6        1281.1518 -1350.0081   403.6502 H6            1 RES     
   25863 H6        1282.2827 -1348.6907   403.6539 H6            1 RES     
   25864 H6        1283.7902 -1350.1987   405.1734 H6            1 RES     
   25865 H6        1284.8726 -1351.1235   403.3088 H6            1 RES     
   25866 H6        1284.2450 -1349.5379   402.8002 H6            1 RES     
   25867 H6        1283.1477 -1352.2894   401.9747 H6            1 RES     
   25868 H6        1284.2591 -1351.2591   401.0582 H6            1 RES     
   25869 H6        1281.3146 -1350.6298   401.6436 H6            1 RES     
   25870 H6        1282.0400 -1351.1306   400.1118 H6            1 RES     
   25871 H6        1282.5750 -1348.4438   401.5450 H6            1 RES     
   25872 H6        1281.5352 -1348.7294   400.1224 H6            1 RES     
   25873 H6        1284.5975 -1349.1424   400.2417 H6            1 RES     
   25874 H6        1283.5463 -1349.4535   398.8022 H6            1 RES     
   25875 H6        1282.8597 -1347.0410   398.8052 H6            1 RES     
   25876 H6        1284.6511 -1347.2225   398.6810 H6            1 RES     
   25877 H6        1283.9044 -1346.7460   400.2529 H6            1 RES     
   25878 H6        1283.6651 -1352.6305   404.6477 H6            1 RES     
   25879 H6        1282.0049 -1352.4297   403.9754 H6            1 RES     
   25880 H6        1282.9279 -1351.8497   406.8427 H6            1 RES     
   25881 H6        1281.2084 -1351.7785   406.2106 H6            1 RES     
   25882 H6        1281.2966 -1354.2058   405.7471 H6            1 RES     
   25883 H6        1283.0061 -1354.2659   406.3411 H6            1 RES     
   25884 H6        1282.2729 -1353.4365   408.5838 H6            1 RES     
   25885 H6        1280.5671 -1353.3651   407.9866 H6            1 RES     
   25886 H6        1280.6082 -1355.8497   407.5985 H6            1 RES     
   25887 H6        1282.3284 -1355.8978   408.1341 H6            1 RES     
   25888 H6        1281.6943 -1355.1270   410.4083 H6            1 RES     
   25889 H6        1280.8769 -1356.6605   409.9325 H6            1 RES     
   25890 H6        1278.7864 -1355.3851   409.3674 H6            1 RES     
   25891 H6        1279.5769 -1353.8514   409.9078 H6            1 RES     
   25892 H6        1278.1475 -1354.7737   411.6870 H6            1 RES     
   25893 H6        1279.0742 -1356.3225   411.6696 H6            1 RES     
   25894 H6        1279.8804 -1354.7863   412.1922 H6            1 RES     
   25895 C0        1288.0699 -1351.7985   416.3459 C0            1 RES     
   25896 C1        1286.8590 -1351.9965   415.4250 C1            1 RES     
   25897 C1        1286.0361 -1352.9851   415.8399 C1            1 RES     
   25898 S2        1284.7088 -1353.1704   414.8404 S2            1 RES     
   25899 C1        1285.2059 -1351.9017   413.8140 C1            1 RES     
   25900 C1        1286.4073 -1351.3496   414.2731 C1            1 RES     
   25901 C1        1286.5818 -1353.5482   417.0214 C1            1 RES     
   25902 C1        1287.7583 -1352.9298   417.3333 C1            1 RES     
   25903 C1        1288.3649 -1353.4705   418.4717 C1            1 RES     
   25904 C1        1287.5998 -1354.5383   419.0072 C1            1 RES     
   25905 S2        1286.1796 -1354.7560   418.0850 S2            1 RES     
   25906 H3        1286.9216 -1350.5267   413.7965 H3            1 RES     
   25907 H3        1289.3042 -1353.1114   418.8646 H3            1 RES     
   25908 N4        1287.1907 -1356.9947   421.8384 N4            1 RES     
   25909 C1        1286.9127 -1356.1565   420.7994 C1            1 RES     
   25910 C1        1287.9354 -1355.4208   420.1568 C1            1 RES     
   25911 C1        1289.2491 -1355.6075   420.6237 C1            1 RES     
   25912 N4        1290.3487 -1355.0179   420.0901 N4            1 RES     
   25913 S2        1291.5745 -1355.6462   421.0037 S2            1 RES     
   25914 N4        1290.8009 -1356.6485   422.0640 N4            1 RES     
   25915 C1        1289.5041 -1356.5046   421.6994 C1            1 RES     
   25916 C1        1288.4548 -1357.1862   422.3011 C1            1 RES     
   25917 H5        1285.8819 -1356.0594   420.4870 H5            1 RES     
   25918 C0        1287.8069 -1350.3842   416.9912 C0            1 RES     
   25919 C0        1288.5336 -1349.7076   418.2066 C0            1 RES     
   25920 C0        1287.6069 -1348.5876   418.8065 C0            1 RES     
   25921 C0        1287.4533 -1347.2200   418.0771 C0            1 RES     
   25922 C0        1286.7564 -1347.1735   416.7014 C0            1 RES     
   25923 C0        1285.3376 -1347.7727   416.6527 C0            1 RES     
   25924 C0        1284.3381 -1347.0361   417.5542 C0            1 RES     
   25925 C0        1282.9408 -1347.6377   417.4205 C0            1 RES     
   25926 C0        1289.9279 -1349.0725   417.9383 C0            1 RES     
   25927 C0        1291.1149 -1350.0272   418.0267 C0            1 RES     
   25928 C0        1292.4168 -1349.3109   417.6228 C0            1 RES     
   25929 C0        1293.6268 -1350.2580   417.6433 C0            1 RES     
   25930 C0        1294.8565 -1349.5820   417.0121 C0            1 RES     
   25931 C0        1296.0535 -1350.5307   416.8151 C0            1 RES     
   25932 C0        1295.7703 -1351.6319   415.7738 C0            1 RES     
   25933 C0        1297.0052 -1352.4869   415.5079 C0            1 RES     
   25934 H6        1287.7918 -1349.6677   416.1580 H6            1 RES     
   25935 H6        1286.7651 -1350.4910   417.3661 H6            1 RES     
   25936 H6        1288.6090 -1350.4587   419.0242 H6            1 RES     
   25937 H6        1288.0429 -1348.3291   419.7978 H6            1 RES     
   25938 H6        1286.6009 -1349.0025   419.0312 H6            1 RES     
   25939 H6        1288.4520 -1346.7471   417.9683 H6            1 RES     
   25940 H6        1286.8759 -1346.5604   418.7592 H6            1 RES     
   25941 H6        1287.3901 -1347.6596   415.9414 H6            1 RES     
   25942 H6        1286.6956 -1346.1096   416.3840 H6            1 RES     
   25943 H6        1285.3599 -1348.8436   416.9263 H6            1 RES     
   25944 H6        1284.9801 -1347.7028   415.6019 H6            1 RES     
   25945 H6        1284.6493 -1347.1113   418.6167 H6            1 RES     
   25946 H6        1284.2965 -1345.9639   417.2638 H6            1 RES     
   25947 H6        1282.5858 -1347.5635   416.3703 H6            1 RES     
   25948 H6        1282.2329 -1347.0860   418.0743 H6            1 RES     
   25949 H6        1282.9499 -1348.7056   417.7269 H6            1 RES     
   25950 H6        1290.1456 -1348.3176   418.7274 H6            1 RES     
   25951 H6        1289.8941 -1348.5383   416.9631 H6            1 RES     
   25952 H6        1291.1976 -1350.4352   419.0576 H6            1 RES     
   25953 H6        1290.9441 -1350.8512   417.3473 H6            1 RES     
   25954 H6        1292.2790 -1348.9357   416.5839 H6            1 RES     
   25955 H6        1292.6133 -1348.4422   418.2883 H6            1 RES     
   25956 H6        1293.8505 -1350.5880   418.6807 H6            1 RES     
   25957 H6        1293.3716 -1351.1539   417.0641 H6            1 RES     
   25958 H6        1294.5908 -1349.1652   416.0152 H6            1 RES     
   25959 H6        1295.1640 -1348.7354   417.6647 H6            1 RES     
   25960 H6        1296.3488 -1350.9811   417.7868 H6            1 RES     
   25961 H6        1296.9028 -1349.9182   416.4408 H6            1 RES     
   25962 H6        1295.4563 -1351.1640   414.8144 H6            1 RES     
   25963 H6        1294.9665 -1352.3057   416.1245 H6            1 RES     
   25964 H6        1296.7625 -1353.2600   414.7505 H6            1 RES     
   25965 H6        1297.8352 -1351.8582   415.1200 H6            1 RES     
   25966 H6        1297.3320 -1352.9926   416.4426 H6            1 RES     
   25967 C0        1289.3527 -1351.9051   415.4257 C0            1 RES     
   25968 C0        1290.5749 -1352.8469   415.6870 C0            1 RES     
   25969 C0        1291.8761 -1352.2377   415.0579 C0            1 RES     
   25970 C0        1292.1163 -1352.2590   413.5281 C0            1 RES     
   25971 C0        1291.2400 -1351.3477   412.6446 C0            1 RES     
   25972 C0        1291.2476 -1349.8487   413.0117 C0            1 RES     
   25973 C0        1292.6381 -1349.2021   412.9636 C0            1 RES     
   25974 C0        1292.5493 -1347.7119   413.2871 C0            1 RES     
   25975 C0        1290.4625 -1354.3215   415.1999 C0            1 RES     
   25976 C0        1289.4544 -1355.1742   415.9516 C0            1 RES     
   25977 C0        1289.5218 -1356.6495   415.5544 C0            1 RES     
   25978 C0        1288.5152 -1357.4502   416.3884 C0            1 RES     
   25979 C0        1288.5490 -1358.9409   416.0304 C0            1 RES     
   25980 C0        1287.5963 -1359.7830   416.8961 C0            1 RES     
   25981 C0        1286.1176 -1359.4069   416.7101 C0            1 RES     
   25982 C0        1285.2128 -1360.3151   417.5359 C0            1 RES     
   25983 H6        1289.0571 -1352.0694   414.3749 H6            1 RES     
   25984 H6        1289.7304 -1350.8707   415.4352 H6            1 RES     
   25985 H6        1290.7608 -1352.8679   416.7786 H6            1 RES     
   25986 H6        1292.7178 -1352.8246   415.4857 H6            1 RES     
   25987 H6        1292.0086 -1351.1952   415.3928 H6            1 RES     
   25988 H6        1292.0543 -1353.3003   413.1516 H6            1 RES     
   25989 H6        1293.1695 -1351.9418   413.3700 H6            1 RES     
   25990 H6        1290.1990 -1351.7126   412.6405 H6            1 RES     
   25991 H6        1291.6021 -1351.4499   411.5986 H6            1 RES     
   25992 H6        1290.8224 -1349.6902   414.0182 H6            1 RES     
   25993 H6        1290.5858 -1349.3253   412.2869 H6            1 RES     
   25994 H6        1293.3087 -1349.6776   413.7097 H6            1 RES     
   25995 H6        1293.0755 -1349.3280   411.9498 H6            1 RES     
   25996 H6        1291.9009 -1347.1939   412.5481 H6            1 RES     
   25997 H6        1293.5618 -1347.2588   413.2514 H6            1 RES     
   25998 H6        1292.1289 -1347.5617   414.3051 H6            1 RES     
   25999 H6        1291.4526 -1354.8013   415.3683 H6            1 RES     
   26000 H6        1290.2399 -1354.3561   414.1114 H6            1 RES     
   26001 H6        1289.6911 -1355.1145   417.0326 H6            1 RES     
   26002 H6        1288.4402 -1354.8045   415.7286 H6            1 RES     
   26003 H6        1289.2911 -1356.7571   414.4725 H6            1 RES     
   26004 H6        1290.5466 -1357.0403   415.7461 H6            1 RES     
   26005 H6        1288.7568 -1357.3316   417.4685 H6            1 RES     
   26006 H6        1287.5031 -1357.0368   416.1985 H6            1 RES     
   26007 H6        1288.2944 -1359.0757   414.9566 H6            1 RES     
   26008 H6        1289.5812 -1359.3215   416.1942 H6            1 RES     
   26009 H6        1287.8786 -1359.6772   417.9670 H6            1 RES     
   26010 H6        1287.7309 -1360.8480   416.6055 H6            1 RES     
   26011 H6        1285.8413 -1359.5029   415.6377 H6            1 RES     
   26012 H6        1285.9380 -1358.3618   417.0368 H6            1 RES     
   26013 H6        1284.1530 -1360.0213   417.3823 H6            1 RES     
   26014 H6        1285.3382 -1361.3732   417.2222 H6            1 RES     
   26015 H6        1285.4555 -1360.2215   418.6160 H6            1 RES     
   26016 C0        1290.1366 -1359.2488   427.0057 C0            1 RES     
   26017 C1        1289.5167 -1359.0366   425.6186 C1            1 RES     
   26018 C1        1288.8566 -1360.1244   425.1632 C1            1 RES     
   26019 S2        1288.1654 -1359.8680   423.6625 S2            1 RES     
   26020 C1        1288.7339 -1358.2612   423.5880 C1            1 RES     
   26021 C1        1289.4574 -1357.9492   424.7449 C1            1 RES     
   26022 C1        1288.9656 -1361.1483   426.1381 C1            1 RES     
   26023 C1        1289.7141 -1360.7111   427.1929 C1            1 RES     
   26024 C1        1289.8892 -1361.6941   428.1722 C1            1 RES     
   26025 C1        1289.2472 -1362.9058   427.8090 C1            1 RES     
   26026 S2        1288.4498 -1362.7153   426.3115 S2            1 RES     
   26027 H3        1289.9135 -1356.9882   424.9380 H3            1 RES     
   26028 H3        1290.4576 -1361.5302   429.0754 H3            1 RES     
   26029 N4        1288.2717 -1366.3856   428.8843 N4            1 RES     
   26030 C1        1288.2707 -1365.1748   428.2572 C1            1 RES     
   26031 C1        1289.2621 -1364.2049   428.5337 C1            1 RES     
   26032 C1        1290.2560 -1364.5525   429.4664 C1            1 RES     
   26033 N4        1291.3031 -1363.7604   429.8096 N4            1 RES     
   26034 S2        1292.1354 -1364.7057   430.8799 S2            1 RES     
   26035 N4        1291.2477 -1366.0966   430.9493 N4            1 RES     
   26036 C1        1290.2353 -1365.8330   430.0885 C1            1 RES     
   26037 C1        1289.2252 -1366.7367   429.7878 C1            1 RES     
   26038 H5        1287.4797 -1364.9705   427.5486 H5            1 RES     
   26039 C0        1289.2967 -1358.2856   427.9292 C0            1 RES     
   26040 C0        1289.2548 -1358.2153   429.4964 C0            1 RES     
   26041 C0        1287.9242 -1357.5091   429.9482 C0            1 RES     
   26042 C0        1287.7746 -1355.9634   429.8285 C0            1 RES     
   26043 C0        1287.7388 -1355.3158   428.4285 C0            1 RES     
   26044 C0        1286.6624 -1355.8604   427.4699 C0            1 RES     
   26045 C0        1285.2314 -1355.6342   427.9751 C0            1 RES     
   26046 C0        1284.2104 -1356.1419   426.9592 C0            1 RES     
   26047 C0        1290.4359 -1357.4959   430.2084 C0            1 RES     
   26048 C0        1291.6623 -1358.3600   430.4867 C0            1 RES     
   26049 C0        1292.8009 -1357.5090   431.0787 C0            1 RES     
   26050 C0        1294.0744 -1358.3351   431.3179 C0            1 RES     
   26051 C0        1295.2560 -1357.4189   431.6809 C0            1 RES     
   26052 C0        1296.6109 -1358.1483   431.7426 C0            1 RES     
   26053 C0        1297.0673 -1358.6658   430.3638 C0            1 RES     
   26054 C0        1298.4623 -1359.2796   430.4259 C0            1 RES     
   26055 H6        1289.4670 -1357.2703   427.5444 H6            1 RES     
   26056 H6        1288.2528 -1358.5741   427.6758 H6            1 RES     
   26057 H6        1289.1520 -1359.2530   429.8850 H6            1 RES     
   26058 H6        1287.8229 -1357.7170   431.0373 H6            1 RES     
   26059 H6        1287.0486 -1358.0037   429.4756 H6            1 RES     
   26060 H6        1288.5810 -1355.4698   430.4107 H6            1 RES     
   26061 H6        1286.8238 -1355.6969   430.3370 H6            1 RES     
   26062 H6        1288.7307 -1355.3911   427.9531 H6            1 RES     
   26063 H6        1287.5676 -1354.2250   428.5601 H6            1 RES     
   26064 H6        1286.8202 -1356.9384   427.2826 H6            1 RES     
   26065 H6        1286.7796 -1355.3311   426.4988 H6            1 RES     
   26066 H6        1285.0700 -1356.1745   428.9308 H6            1 RES     
   26067 H6        1285.0635 -1354.5478   428.1403 H6            1 RES     
   26068 H6        1284.3285 -1355.6090   425.9916 H6            1 RES     
   26069 H6        1283.1833 -1355.9618   427.3407 H6            1 RES     
   26070 H6        1284.3421 -1357.2325   426.7925 H6            1 RES     
   26071 H6        1290.1116 -1357.1747   431.2241 H6            1 RES     
   26072 H6        1290.6934 -1356.5794   429.6329 H6            1 RES     
   26073 H6        1291.3938 -1359.1881   431.1783 H6            1 RES     
   26074 H6        1291.9974 -1358.7913   429.5533 H6            1 RES     
   26075 H6        1293.0323 -1356.7078   430.3414 H6            1 RES     
   26076 H6        1292.4835 -1357.0309   432.0310 H6            1 RES     
   26077 H6        1293.9078 -1359.0933   432.1131 H6            1 RES     
   26078 H6        1294.3103 -1358.8778   430.3943 H6            1 RES     
   26079 H6        1295.3481 -1356.6025   430.9304 H6            1 RES     
   26080 H6        1295.0464 -1356.9521   432.6685 H6            1 RES     
   26081 H6        1296.5634 -1358.9826   432.4747 H6            1 RES     
   26082 H6        1297.3662 -1357.4136   432.0978 H6            1 RES     
   26083 H6        1297.0891 -1357.8219   429.6389 H6            1 RES     
   26084 H6        1296.3763 -1359.4435   429.9886 H6            1 RES     
   26085 H6        1298.7555 -1359.6320   429.4159 H6            1 RES     
   26086 H6        1299.2027 -1358.5248   430.7673 H6            1 RES     
   26087 H6        1298.4712 -1360.1458   431.1231 H6            1 RES     
   26088 C0        1291.6734 -1358.8985   426.8664 C0            1 RES     
   26089 C0        1292.8540 -1359.8284   427.3024 C0            1 RES     
   26090 C0        1294.1131 -1358.9711   427.6761 C0            1 RES     
   26091 C0        1294.9775 -1358.2928   426.5847 C0            1 RES     
   26092 C0        1294.3704 -1357.1008   425.8170 C0            1 RES     
   26093 C0        1293.8649 -1355.9300   426.6863 C0            1 RES     
   26094 C0        1294.9465 -1355.3000   427.5735 C0            1 RES     
   26095 C0        1294.3773 -1354.1196   428.3584 C0            1 RES     
   26096 C0        1293.3131 -1360.9255   426.2975 C0            1 RES     
   26097 C0        1292.3159 -1362.0488   426.0685 C0            1 RES     
   26098 C0        1292.8941 -1363.1830   425.2212 C0            1 RES     
   26099 C0        1291.8509 -1364.2970   425.0775 C0            1 RES     
   26100 C0        1292.3867 -1365.4635   424.2387 C0            1 RES     
   26101 C0        1291.3871 -1366.6276   424.1302 C0            1 RES     
   26102 C0        1290.0848 -1366.2419   423.4105 C0            1 RES     
   26103 C0        1289.1596 -1367.4458   423.2685 C0            1 RES     
   26104 H6        1291.9002 -1358.5765   425.8352 H6            1 RES     
   26105 H6        1291.7534 -1357.9718   427.4560 H6            1 RES     
   26106 H6        1292.5579 -1360.3365   428.2409 H6            1 RES     
   26107 H6        1294.8063 -1359.6686   428.1946 H6            1 RES     
   26108 H6        1293.8389 -1358.1899   428.4050 H6            1 RES     
   26109 H6        1295.3307 -1359.0524   425.8580 H6            1 RES     
   26110 H6        1295.8894 -1357.9145   427.0948 H6            1 RES     
   26111 H6        1293.5494 -1357.4480   425.1672 H6            1 RES     
   26112 H6        1295.1551 -1356.7106   425.1331 H6            1 RES     
   26113 H6        1293.0285 -1356.2535   427.3302 H6            1 RES     
   26114 H6        1293.4700 -1355.1507   425.9978 H6            1 RES     
   26115 H6        1295.3286 -1356.0460   428.3015 H6            1 RES     
   26116 H6        1295.7889 -1354.9439   426.9423 H6            1 RES     
   26117 H6        1294.0015 -1353.3384   427.6632 H6            1 RES     
   26118 H6        1295.1694 -1353.6764   428.9971 H6            1 RES     
   26119 H6        1293.5422 -1354.4556   429.0105 H6            1 RES     
   26120 H6        1294.2207 -1361.4069   426.7258 H6            1 RES     
   26121 H6        1293.5890 -1360.4693   425.3221 H6            1 RES     
   26122 H6        1292.0496 -1362.4790   427.0545 H6            1 RES     
   26123 H6        1291.4367 -1361.6414   425.5431 H6            1 RES     
   26124 H6        1293.1774 -1362.7950   424.2189 H6            1 RES     
   26125 H6        1293.8009 -1363.5947   425.7190 H6            1 RES     
   26126 H6        1291.5753 -1364.6742   426.0879 H6            1 RES     
   26127 H6        1290.9490 -1363.8657   424.5960 H6            1 RES     
   26128 H6        1292.6523 -1365.1040   423.2207 H6            1 RES     
   26129 H6        1293.3095 -1365.8534   424.7222 H6            1 RES     
   26130 H6        1291.1538 -1367.0111   425.1481 H6            1 RES     
   26131 H6        1291.8811 -1367.4427   423.5572 H6            1 RES     
   26132 H6        1290.3215 -1365.8489   422.3981 H6            1 RES     
   26133 H6        1289.5407 -1365.4619   423.9823 H6            1 RES     
   26134 H6        1288.2291 -1367.1386   422.7462 H6            1 RES     
   26135 H6        1289.6538 -1368.2445   422.6757 H6            1 RES     
   26136 H6        1288.8908 -1367.8451   424.2698 H6            1 RES     
   26137 C0        1289.1873 -1370.6648   433.5006 C0            1 RES     
   26138 C1        1289.1842 -1369.8625   432.1931 C1            1 RES     
   26139 C1        1289.0595 -1370.6416   431.0958 C1            1 RES     
   26140 S2        1289.0317 -1369.7501   429.6816 S2            1 RES     
   26141 C1        1289.1781 -1368.2709   430.5187 C1            1 RES     
   26142 C1        1289.2449 -1368.4992   431.8979 C1            1 RES     
   26143 C1        1288.9842 -1371.9929   431.5189 C1            1 RES     
   26144 C1        1289.0863 -1372.0630   432.8785 C1            1 RES     
   26145 C1        1289.0572 -1373.3783   433.3530 C1            1 RES     
   26146 C1        1288.9385 -1374.3090   432.2891 C1            1 RES     
   26147 S2        1288.8323 -1373.4803   430.8003 S2            1 RES     
   26148 H3        1289.3329 -1367.7193   432.6414 H3            1 RES     
   26149 H3        1289.1313 -1373.6275   434.4009 H3            1 RES     
   26150 N4        1288.4568 -1377.9202   431.3174 N4            1 RES     
   26151 C1        1288.4344 -1376.5571   431.2917 C1            1 RES     
   26152 C1        1288.9526 -1375.7947   432.3642 C1            1 RES     
   26153 C1        1289.5075 -1376.5037   433.4449 C1            1 RES     
   26154 N4        1290.0884 -1375.9288   434.5282 N4            1 RES     
   26155 S2        1290.5858 -1377.2366   435.4080 S2            1 RES     
   26156 N4        1290.1114 -1378.5284   434.4950 N4            1 RES     
   26157 C1        1289.5297 -1377.9272   433.4293 C1            1 RES     
   26158 C1        1288.9897 -1378.6201   432.3543 C1            1 RES     
   26159 H5        1287.9956 -1376.0726   430.4302 H5            1 RES     
   26160 C0        1287.8326 -1370.2428   434.1879 C0            1 RES     
   26161 C0        1287.1139 -1370.8898   435.4240 C0            1 RES     
   26162 C0        1285.5918 -1370.4948   435.4039 C0            1 RES     
   26163 C0        1285.1445 -1369.0659   435.8329 C0            1 RES     
   26164 C0        1285.5536 -1367.8562   434.9669 C0            1 RES     
   26165 C0        1285.1497 -1367.9328   433.4820 C0            1 RES     
   26166 C0        1283.6312 -1367.9922   433.2699 C0            1 RES     
   26167 C0        1283.2912 -1368.0089   431.7812 C0            1 RES     
   26168 C0        1287.6724 -1370.5433   436.8338 C0            1 RES     
   26169 C0        1288.8311 -1371.4116   437.3151 C0            1 RES     
   26170 C0        1289.3722 -1370.8946   438.6608 C0            1 RES     
   26171 C0        1290.5797 -1371.7102   439.1490 C0            1 RES     
   26172 C0        1291.2401 -1371.0305   440.3611 C0            1 RES     
   26173 C0        1292.5709 -1371.6778   440.7869 C0            1 RES     
   26174 C0        1293.6781 -1371.5053   439.7278 C0            1 RES     
   26175 C0        1295.0164 -1372.0489   440.2180 C0            1 RES     
   26176 H6        1287.9034 -1369.1596   434.3601 H6            1 RES     
   26177 H6        1287.0967 -1370.4093   433.3706 H6            1 RES     
   26178 H6        1287.1058 -1371.9930   435.2789 H6            1 RES     
   26179 H6        1285.0902 -1371.1749   436.1288 H6            1 RES     
   26180 H6        1285.1449 -1370.7420   434.4170 H6            1 RES     
   26181 H6        1285.4845 -1368.8706   436.8717 H6            1 RES     
   26182 H6        1284.0346 -1369.0799   435.8723 H6            1 RES     
   26183 H6        1286.6399 -1367.6857   435.0470 H6            1 RES     
   26184 H6        1285.0889 -1366.9470   435.4073 H6            1 RES     
   26185 H6        1285.6233 -1368.8058   432.9963 H6            1 RES     
   26186 H6        1285.5385 -1367.0191   432.9811 H6            1 RES     
   26187 H6        1283.2129 -1368.9099   433.7329 H6            1 RES     
   26188 H6        1283.1562 -1367.1021   433.7365 H6            1 RES     
   26189 H6        1283.6785 -1367.0935   431.2849 H6            1 RES     
   26190 H6        1282.1891 -1368.0442   431.6506 H6            1 RES     
   26191 H6        1283.7362 -1368.9029   431.2941 H6            1 RES     
   26192 H6        1286.8816 -1370.7236   437.5966 H6            1 RES     
   26193 H6        1287.9239 -1369.4600   436.8607 H6            1 RES     
   26194 H6        1288.4998 -1372.4689   437.4080 H6            1 RES     
   26195 H6        1289.6227 -1371.3665   436.5796 H6            1 RES     
   26196 H6        1289.6970 -1369.8415   438.5037 H6            1 RES     
   26197 H6        1288.5771 -1370.9061   439.4378 H6            1 RES     
   26198 H6        1290.2767 -1372.7496   439.3997 H6            1 RES     
   26199 H6        1291.3069 -1371.7711   438.3301 H6            1 RES     
   26200 H6        1291.4451 -1369.9611   440.1318 H6            1 RES     
   26201 H6        1290.5267 -1371.0656   441.2138 H6            1 RES     
   26202 H6        1292.4169 -1372.7538   441.0166 H6            1 RES     
   26203 H6        1292.9054 -1371.1661   441.7158 H6            1 RES     
   26204 H6        1293.8042 -1370.4246   439.4950 H6            1 RES     
   26205 H6        1293.4185 -1372.0448   438.7980 H6            1 RES     
   26206 H6        1295.7851 -1371.8996   439.4325 H6            1 RES     
   26207 H6        1295.3388 -1371.5133   441.1365 H6            1 RES     
   26208 H6        1294.9340 -1373.1362   440.4354 H6            1 RES     
   26209 C0        1290.5058 -1370.2544   434.2732 C0            1 RES     
   26210 C0        1291.5732 -1371.2538   434.8306 C0            1 RES     
   26211 C0        1292.3108 -1370.6296   436.0661 C0            1 RES     
   26212 C0        1293.3681 -1369.5115   435.8915 C0            1 RES     
   26213 C0        1292.8803 -1368.1154   435.4537 C0            1 RES     
   26214 C0        1291.7914 -1367.4762   436.3411 C0            1 RES     
   26215 C0        1292.2098 -1367.2909   437.8055 C0            1 RES     
   26216 C0        1291.0988 -1366.6064   438.5994 C0            1 RES     
   26217 C0        1292.6617 -1371.7670   433.8428 C0            1 RES     
   26218 C0        1292.1547 -1372.6878   432.7456 C0            1 RES     
   26219 C0        1293.2891 -1373.3028   431.9249 C0            1 RES     
   26220 C0        1292.7035 -1374.2549   430.8759 C0            1 RES     
   26221 C0        1293.8050 -1374.9034   430.0288 C0            1 RES     
   26222 C0        1293.2544 -1375.9151   429.0092 C0            1 RES     
   26223 C0        1292.3306 -1375.2755   427.9605 C0            1 RES     
   26224 C0        1291.8687 -1376.3058   426.9355 C0            1 RES     
   26225 H6        1291.0653 -1369.4958   433.6987 H6            1 RES     
   26226 H6        1290.1051 -1369.6929   435.1317 H6            1 RES     
   26227 H6        1291.0368 -1372.1380   435.2271 H6            1 RES     
   26228 H6        1292.8620 -1371.4702   436.5409 H6            1 RES     
   26229 H6        1291.5761 -1370.2689   436.8056 H6            1 RES     
   26230 H6        1294.1657 -1369.8522   435.2005 H6            1 RES     
   26231 H6        1293.8583 -1369.3840   436.8807 H6            1 RES     
   26232 H6        1292.5215 -1368.1499   434.4111 H6            1 RES     
   26233 H6        1293.7635 -1367.4404   435.4490 H6            1 RES     
   26234 H6        1290.8641 -1368.0749   436.3149 H6            1 RES     
   26235 H6        1291.5534 -1366.4790   435.9094 H6            1 RES     
   26236 H6        1292.4119 -1368.2766   438.2747 H6            1 RES     
   26237 H6        1293.1291 -1366.6688   437.8570 H6            1 RES     
   26238 H6        1290.8799 -1365.6041   438.1724 H6            1 RES     
   26239 H6        1291.4142 -1366.4819   439.6561 H6            1 RES     
   26240 H6        1290.1722 -1367.2199   438.5754 H6            1 RES     
   26241 H6        1293.3871 -1372.3692   434.4344 H6            1 RES     
   26242 H6        1293.2084 -1370.9129   433.3876 H6            1 RES     
   26243 H6        1291.6057 -1373.5233   433.2238 H6            1 RES     
   26244 H6        1291.5128 -1372.1071   432.0632 H6            1 RES     
   26245 H6        1293.8699 -1372.4971   431.4260 H6            1 RES     
   26246 H6        1293.9679 -1373.8743   432.5975 H6            1 RES     
   26247 H6        1292.1234 -1375.0544   431.3891 H6            1 RES     
   26248 H6        1292.0175 -1373.6732   430.2261 H6            1 RES     
   26249 H6        1294.3838 -1374.1165   429.4979 H6            1 RES     
   26250 H6        1294.4986 -1375.4486   430.7063 H6            1 RES     
   26251 H6        1292.7097 -1376.7227   429.5466 H6            1 RES     
   26252 H6        1294.1231 -1376.3715   428.4859 H6            1 RES     
   26253 H6        1292.8738 -1374.4619   427.4328 H6            1 RES     
   26254 H6        1291.4271 -1374.8510   428.4451 H6            1 RES     
   26255 H6        1291.2045 -1375.8169   426.1919 H6            1 RES     
   26256 H6        1292.7420 -1376.7386   426.4028 H6            1 RES     
   26257 H6        1291.3037 -1377.1208   427.4363 H6            1 RES     
   26258 C0        1288.3140 -1383.8023   433.7344 C0            1 RES     
   26259 C1        1288.6757 -1382.4957   433.0165 C1            1 RES     
   26260 C1        1289.2177 -1382.6970   431.7949 C1            1 RES     
   26261 S2        1289.5820 -1381.2634   431.0157 S2            1 RES     
   26262 C1        1289.0029 -1380.3196   432.3135 C1            1 RES     
   26263 C1        1288.5299 -1381.1453   433.3398 C1            1 RES     
   26264 C1        1289.2935 -1384.0949   431.5694 C1            1 RES     
   26265 C1        1288.8221 -1384.7699   432.6585 C1            1 RES     
   26266 C1        1288.9079 -1386.1579   432.5097 C1            1 RES     
   26267 C1        1289.4771 -1386.5094   431.2588 C1            1 RES     
   26268 S2        1289.8194 -1385.0997   430.3588 S2            1 RES     
   26269 H3        1288.1058 -1380.7842   434.2663 H3            1 RES     
   26270 H3        1288.5870 -1386.8523   433.2716 H3            1 RES     
   26271 N4        1290.3271 -1389.3009   428.8709 N4            1 RES     
   26272 C1        1289.9945 -1388.0743   429.3651 C1            1 RES     
   26273 C1        1289.8107 -1387.8677   430.7521 C1            1 RES     
   26274 C1        1290.0052 -1388.9759   431.5962 C1            1 RES     
   26275 N4        1289.9161 -1388.9399   432.9498 N4            1 RES     
   26276 S2        1290.2880 -1390.4925   433.3777 S2            1 RES     
   26277 N4        1290.5681 -1391.2423   431.9331 N4            1 RES     
   26278 C1        1290.3695 -1390.2376   431.0462 C1            1 RES     
   26279 C1        1290.5188 -1390.3816   429.6734 C1            1 RES     
   26280 H5        1289.8618 -1387.2628   428.6628 H5            1 RES     
   26281 C0        1286.7383 -1383.7677   433.7777 C0            1 RES     
   26282 C0        1285.7394 -1384.9199   434.1486 C0            1 RES     
   26283 C0        1284.3243 -1384.5934   433.5453 C0            1 RES     
   26284 C0        1283.4118 -1383.5235   434.2151 C0            1 RES     
   26285 C0        1283.8493 -1382.0441   434.2009 C0            1 RES     
   26286 C0        1284.1451 -1381.4501   432.8102 C0            1 RES     
   26287 C0        1282.9226 -1381.4419   431.8829 C0            1 RES     
   26288 C0        1283.2615 -1380.7913   430.5435 C0            1 RES     
   26289 C0        1285.5465 -1385.2358   435.6594 C0            1 RES     
   26290 C0        1286.5608 -1386.2012   436.2655 C0            1 RES     
   26291 C0        1286.3394 -1386.3363   437.7833 C0            1 RES     
   26292 C0        1287.3808 -1387.2568   438.4388 C0            1 RES     
   26293 C0        1287.2816 -1387.1838   439.9725 C0            1 RES     
   26294 C0        1288.4174 -1387.9231   440.7039 C0            1 RES     
   26295 C0        1289.7933 -1387.2651   440.4777 C0            1 RES     
   26296 C0        1290.8836 -1387.9409   441.3032 C0            1 RES     
   26297 H6        1286.4696 -1382.8782   434.3646 H6            1 RES     
   26298 H6        1286.4820 -1383.5634   432.7148 H6            1 RES     
   26299 H6        1286.0561 -1385.8382   433.6058 H6            1 RES     
   26300 H6        1283.7400 -1385.5391   433.6080 H6            1 RES     
   26301 H6        1284.4117 -1384.3778   432.4587 H6            1 RES     
   26302 H6        1283.2213 -1383.8115   435.2704 H6            1 RES     
   26303 H6        1282.4287 -1383.5793   433.7012 H6            1 RES     
   26304 H6        1284.7238 -1381.9035   434.8574 H6            1 RES     
   26305 H6        1283.0403 -1381.4432   434.6708 H6            1 RES     
   26306 H6        1284.9725 -1381.9981   432.3230 H6            1 RES     
   26307 H6        1284.4802 -1380.4001   432.9585 H6            1 RES     
   26308 H6        1282.5787 -1382.4790   431.6892 H6            1 RES     
   26309 H6        1282.0979 -1380.8701   432.3611 H6            1 RES     
   26310 H6        1283.5930 -1379.7418   430.6953 H6            1 RES     
   26311 H6        1282.3626 -1380.7889   429.8918 H6            1 RES     
   26312 H6        1284.0696 -1381.3580   430.0333 H6            1 RES     
   26313 H6        1284.5746 -1385.7595   435.8040 H6            1 RES     
   26314 H6        1285.4973 -1384.2763   436.2202 H6            1 RES     
   26315 H6        1286.4832 -1387.1934   435.7699 H6            1 RES     
   26316 H6        1287.5539 -1385.8102   436.0907 H6            1 RES     
   26317 H6        1286.4395 -1385.3190   438.2238 H6            1 RES     
   26318 H6        1285.3175 -1386.7161   438.0019 H6            1 RES     
   26319 H6        1287.2567 -1388.3038   438.0876 H6            1 RES     
   26320 H6        1288.3783 -1386.9241   438.1264 H6            1 RES     
   26321 H6        1287.3039 -1386.1219   440.3044 H6            1 RES     
   26322 H6        1286.3047 -1387.6170   440.2811 H6            1 RES     
   26323 H6        1288.4411 -1388.9899   440.3945 H6            1 RES     
   26324 H6        1288.1936 -1387.8792   441.7922 H6            1 RES     
   26325 H6        1289.7455 -1386.1934   440.7729 H6            1 RES     
   26326 H6        1290.0895 -1387.3316   439.4143 H6            1 RES     
   26327 H6        1291.8532 -1387.4350   441.1181 H6            1 RES     
   26328 H6        1290.6480 -1387.8714   442.3867 H6            1 RES     
   26329 H6        1290.9778 -1389.0105   441.0146 H6            1 RES     
   26330 C0        1289.0403 -1383.7556   435.1394 C0            1 RES     
   26331 C0        1289.9737 -1384.8744   435.7103 C0            1 RES     
   26332 C0        1289.9452 -1384.8597   437.2784 C0            1 RES     
   26333 C0        1290.6773 -1383.7597   438.0862 C0            1 RES     
   26334 C0        1290.1052 -1382.3280   438.0437 C0            1 RES     
   26335 C0        1288.6252 -1382.1842   438.4568 C0            1 RES     
   26336 C0        1288.3250 -1382.6717   439.8803 C0            1 RES     
   26337 C0        1286.8546 -1382.4457   440.2268 C0            1 RES     
   26338 C0        1291.4661 -1384.8605   435.2666 C0            1 RES     
   26339 C0        1291.7078 -1385.1969   433.8048 C0            1 RES     
   26340 C0        1293.1935 -1385.3482   433.4754 C0            1 RES     
   26341 C0        1293.3535 -1385.7362   432.0011 C0            1 RES     
   26342 C0        1294.8296 -1385.9062   431.6220 C0            1 RES     
   26343 C0        1295.0219 -1386.3597   430.1648 C0            1 RES     
   26344 C0        1294.5081 -1385.3363   429.1396 C0            1 RES     
   26345 C0        1294.7846 -1385.8020   427.7141 C0            1 RES     
   26346 H6        1289.5927 -1382.8067   435.2530 H6            1 RES     
   26347 H6        1288.1923 -1383.6524   435.8344 H6            1 RES     
   26348 H6        1289.5469 -1385.8543   435.4199 H6            1 RES     
   26349 H6        1290.4250 -1385.8113   437.5948 H6            1 RES     
   26350 H6        1288.9037 -1384.8893   437.6403 H6            1 RES     
   26351 H6        1291.7485 -1383.7327   437.8006 H6            1 RES     
   26352 H6        1290.6553 -1384.0821   439.1494 H6            1 RES     
   26353 H6        1290.2425 -1381.8956   437.0382 H6            1 RES     
   26354 H6        1290.7184 -1381.7039   438.7294 H6            1 RES     
   26355 H6        1287.9685 -1382.7274   437.7550 H6            1 RES     
   26356 H6        1288.3635 -1381.1054   438.3869 H6            1 RES     
   26357 H6        1288.5366 -1383.7581   439.9667 H6            1 RES     
   26358 H6        1288.9584 -1382.1193   440.6073 H6            1 RES     
   26359 H6        1286.6064 -1381.3640   440.1718 H6            1 RES     
   26360 H6        1286.6519 -1382.8054   441.2570 H6            1 RES     
   26361 H6        1286.2011 -1383.0031   439.5213 H6            1 RES     
   26362 H6        1291.9918 -1385.6484   435.8512 H6            1 RES     
   26363 H6        1291.9339 -1383.8806   435.5044 H6            1 RES     
   26364 H6        1291.2237 -1386.1706   433.5911 H6            1 RES     
   26365 H6        1291.2986 -1384.3852   433.1813 H6            1 RES     
   26366 H6        1293.7212 -1384.3909   433.6768 H6            1 RES     
   26367 H6        1293.6368 -1386.1464   434.1126 H6            1 RES     
   26368 H6        1292.8189 -1386.6943   431.8136 H6            1 RES     
   26369 H6        1292.8918 -1384.9393   431.3821 H6            1 RES     
   26370 H6        1295.3736 -1384.9513   431.7902 H6            1 RES     
   26371 H6        1295.2775 -1386.6828   432.2804 H6            1 RES     
   26372 H6        1294.5098 -1387.3352   430.0103 H6            1 RES     
   26373 H6        1296.1115 -1386.5102   430.0006 H6            1 RES     
   26374 H6        1295.0133 -1384.3599   429.3033 H6            1 RES     
   26375 H6        1293.4120 -1385.1976   429.2443 H6            1 RES     
   26376 H6        1294.4038 -1385.0450   426.9964 H6            1 RES     
   26377 H6        1295.8765 -1385.9271   427.5539 H6            1 RES     
   26378 H6        1294.2720 -1386.7680   427.5182 H6            1 RES     
   26379 C0        1290.5743 -1395.6417   428.4305 C0            1 RES     
   26380 C1        1290.8846 -1394.1438   428.5467 C1            1 RES     
   26381 C1        1291.9246 -1393.7585   427.7744 C1            1 RES     
   26382 S2        1292.2329 -1392.1195   427.8927 S2            1 RES     
   26383 C1        1290.9517 -1391.8781   428.9930 C1            1 RES     
   26384 C1        1290.2990 -1393.0893   429.2499 C1            1 RES     
   26385 C1        1292.4187 -1394.9012   427.0956 C1            1 RES     
   26386 C1        1291.7050 -1396.0063   427.4607 C1            1 RES     
   26387 C1        1292.1730 -1397.1747   426.8508 C1            1 RES     
   26388 C1        1293.2849 -1396.9094   426.0108 C1            1 RES     
   26389 S2        1293.6310 -1395.2376   426.0144 S2            1 RES     
   26390 H3        1289.4493 -1393.1959   429.9097 H3            1 RES     
   26391 H3        1291.7343 -1398.1456   427.0249 H3            1 RES     
   26392 N4        1295.7048 -1398.2991   423.4751 N4            1 RES     
   26393 C1        1294.9129 -1397.4366   424.1737 C1            1 RES     
   26394 C1        1294.1143 -1397.8838   425.2519 C1            1 RES     
   26395 C1        1294.1893 -1399.2491   425.5816 C1            1 RES     
   26396 N4        1293.5282 -1399.8311   426.6139 N4            1 RES     
   26397 S2        1294.0405 -1401.4004   426.5320 S2            1 RES     
   26398 N4        1295.0767 -1401.4093   425.2461 N4            1 RES     
   26399 C1        1295.0410 -1400.1170   424.8410 C1            1 RES     
   26400 C1        1295.7885 -1399.6212   423.7813 C1            1 RES     
   26401 H5        1294.9022 -1396.3984   423.8711 H5            1 RES     
   26402 C0        1289.1711 -1395.6664   427.7120 C0            1 RES     
   26403 C0        1288.4148 -1396.8843   427.0735 C0            1 RES     
   26404 C0        1287.3570 -1396.3526   426.0382 C0            1 RES     
   26405 C0        1286.0212 -1395.7224   426.5324 C0            1 RES     
   26406 C0        1286.0578 -1394.3868   427.3041 C0            1 RES     
   26407 C0        1286.7654 -1393.2217   426.5859 C0            1 RES     
   26408 C0        1286.0891 -1392.8229   425.2676 C0            1 RES     
   26409 C0        1286.7993 -1391.6294   424.6324 C0            1 RES     
   26410 C0        1287.6799 -1397.8535   428.0430 C0            1 RES     
   26411 C0        1288.5383 -1398.9652   428.6394 C0            1 RES     
   26412 C0        1287.7325 -1399.7771   429.6703 C0            1 RES     
   26413 C0        1288.5828 -1400.8705   430.3358 C0            1 RES     
   26414 C0        1287.8277 -1401.5011   431.5188 C0            1 RES     
   26415 C0        1288.6852 -1402.4651   432.3596 C0            1 RES     
   26416 C0        1289.8268 -1401.7447   433.1044 C0            1 RES     
   26417 C0        1290.5895 -1402.6957   434.0214 C0            1 RES     
   26418 H6        1288.4757 -1395.1448   428.3846 H6            1 RES     
   26419 H6        1289.3499 -1395.0094   426.8324 H6            1 RES     
   26420 H6        1289.1402 -1397.4504   426.4477 H6            1 RES     
   26421 H6        1287.0447 -1397.2375   425.4391 H6            1 RES     
   26422 H6        1287.8434 -1395.6670   425.3115 H6            1 RES     
   26423 H6        1285.4752 -1396.4607   427.1567 H6            1 RES     
   26424 H6        1285.3937 -1395.5622   425.6300 H6            1 RES     
   26425 H6        1286.5097 -1394.5384   428.2982 H6            1 RES     
   26426 H6        1285.0087 -1394.0820   427.5110 H6            1 RES     
   26427 H6        1287.8254 -1393.4710   426.3947 H6            1 RES     
   26428 H6        1286.7457 -1392.3448   427.2697 H6            1 RES     
   26429 H6        1286.1174 -1393.6678   424.5487 H6            1 RES     
   26430 H6        1285.0298 -1392.5481   425.4622 H6            1 RES     
   26431 H6        1286.7750 -1390.7547   425.3170 H6            1 RES     
   26432 H6        1286.2900 -1391.3531   423.6852 H6            1 RES     
   26433 H6        1287.8566 -1391.8855   424.4065 H6            1 RES     
   26434 H6        1286.8939 -1398.4080   427.4822 H6            1 RES     
   26435 H6        1287.1708 -1397.2527   428.8288 H6            1 RES     
   26436 H6        1288.9167 -1399.6275   427.8305 H6            1 RES     
   26437 H6        1289.3872 -1398.5149   429.1356 H6            1 RES     
   26438 H6        1287.3912 -1399.0669   430.4565 H6            1 RES     
   26439 H6        1286.8373 -1400.2379   429.1987 H6            1 RES     
   26440 H6        1288.8724 -1401.6480   429.5966 H6            1 RES     
   26441 H6        1289.5078 -1400.4098   430.7038 H6            1 RES     
   26442 H6        1287.4538 -1400.7039   432.1992 H6            1 RES     
   26443 H6        1286.9462 -1402.0492   431.1191 H6            1 RES     
   26444 H6        1289.0907 -1403.2758   431.7173 H6            1 RES     
   26445 H6        1288.0172 -1402.9232   433.1214 H6            1 RES     
   26446 H6        1289.4050 -1400.9237   433.7257 H6            1 RES     
   26447 H6        1290.5529 -1401.3164   432.3887 H6            1 RES     
   26448 H6        1291.3950 -1402.1388   434.5424 H6            1 RES     
   26449 H6        1289.9072 -1403.1290   434.7837 H6            1 RES     
   26450 H6        1291.0486 -1403.5167   433.4286 H6            1 RES     
   26451 C0        1290.6012 -1396.2188   429.9036 C0            1 RES     
   26452 C0        1291.4403 -1397.4532   430.3739 C0            1 RES     
   26453 C0        1290.7461 -1398.1498   431.5957 C0            1 RES     
   26454 C0        1290.7813 -1397.5176   433.0091 C0            1 RES     
   26455 C0        1289.9592 -1396.2350   433.2494 C0            1 RES     
   26456 C0        1288.4566 -1396.3273   432.9096 C0            1 RES     
   26457 C0        1287.7059 -1397.4125   433.6924 C0            1 RES     
   26458 C0        1286.2205 -1397.4013   433.3367 C0            1 RES     
   26459 C0        1292.9291 -1397.2061   430.7566 C0            1 RES     
   26460 C0        1293.8409 -1396.8395   429.5978 C0            1 RES     
   26461 C0        1295.3146 -1396.7915   430.0032 C0            1 RES     
   26462 C0        1296.1726 -1396.4671   428.7750 C0            1 RES     
   26463 C0        1297.6636 -1396.4136   429.1296 C0            1 RES     
   26464 C0        1298.5581 -1396.1547   427.9052 C0            1 RES     
   26465 C0        1298.3011 -1394.7903   427.2457 C0            1 RES     
   26466 C0        1299.2586 -1394.5546   426.0825 C0            1 RES     
   26467 H6        1290.8101 -1395.4114   430.6269 H6            1 RES     
   26468 H6        1289.5408 -1396.4604   430.0764 H6            1 RES     
   26469 H6        1291.4236 -1398.2053   429.5611 H6            1 RES     
   26470 H6        1291.2571 -1399.1304   431.7104 H6            1 RES     
   26471 H6        1289.6896 -1398.3637   431.3620 H6            1 RES     
   26472 H6        1291.8320 -1397.3399   433.3161 H6            1 RES     
   26473 H6        1290.3873 -1398.2864   433.7081 H6            1 RES     
   26474 H6        1290.4033 -1395.3915   432.6941 H6            1 RES     
   26475 H6        1290.0555 -1395.9745   434.3259 H6            1 RES     
   26476 H6        1288.3100 -1396.5092   431.8306 H6            1 RES     
   26477 H6        1288.0013 -1395.3397   433.1433 H6            1 RES     
   26478 H6        1288.1124 -1398.4154   433.4444 H6            1 RES     
   26479 H6        1287.8193 -1397.2343   434.7834 H6            1 RES     
   26480 H6        1285.7699 -1396.4176   433.5898 H6            1 RES     
   26481 H6        1285.6916 -1398.1925   433.9076 H6            1 RES     
   26482 H6        1286.0815 -1397.5941   432.2508 H6            1 RES     
   26483 H6        1293.3275 -1398.1609   431.1670 H6            1 RES     
   26484 H6        1293.0040 -1396.4292   431.5482 H6            1 RES     
   26485 H6        1293.7401 -1397.6221   428.8196 H6            1 RES     
   26486 H6        1293.5552 -1395.8431   429.2227 H6            1 RES     
   26487 H6        1295.4627 -1396.0171   430.7866 H6            1 RES     
   26488 H6        1295.6211 -1397.7813   430.4109 H6            1 RES     
   26489 H6        1296.0129 -1397.2488   427.9988 H6            1 RES     
   26490 H6        1295.8426 -1395.4872   428.3722 H6            1 RES     
   26491 H6        1297.8404 -1395.6258   429.8939 H6            1 RES     
   26492 H6        1297.9599 -1397.3936   429.5644 H6            1 RES     
   26493 H6        1298.4081 -1396.9663   427.1593 H6            1 RES     
   26494 H6        1299.6154 -1396.1896   428.2480 H6            1 RES     
   26495 H6        1298.4409 -1393.9821   427.9960 H6            1 RES     
   26496 H6        1297.2662 -1394.7389   426.8486 H6            1 RES     
   26497 H6        1299.0507 -1393.5638   425.6262 H6            1 RES     
   26498 H6        1300.3103 -1394.5688   426.4394 H6            1 RES     
   26499 H6        1299.1236 -1395.3391   425.3075 H6            1 RES     
   26500 C0        1297.6148 -1403.7480   420.8063 C0            1 RES     
   26501 C1        1297.4806 -1402.4579   421.6254 C1            1 RES     
   26502 C1        1298.6255 -1401.7414   421.6736 C1            1 RES     
   26503 S2        1298.4551 -1400.3265   422.5478 S2            1 RES     
   26504 C1        1296.8112 -1400.6380   422.8812 C1            1 RES     
   26505 C1        1296.4198 -1401.8490   422.2988 C1            1 RES     
   26506 C1        1299.6170 -1402.4420   420.9410 C1            1 RES     
   26507 C1        1299.1011 -1403.6087   420.4546 C1            1 RES     
   26508 C1        1300.0466 -1404.3639   419.7534 C1            1 RES     
   26509 C1        1301.3116 -1403.7222   419.7371 C1            1 RES     
   26510 S2        1301.2151 -1402.2254   420.5525 S2            1 RES     
   26511 H3        1295.4226 -1402.2618   422.3623 H3            1 RES     
   26512 H3        1299.8202 -1405.3185   419.3025 H3            1 RES     
   26513 N4        1304.8326 -1403.7594   418.3887 N4            1 RES     
   26514 C1        1303.6391 -1403.3244   418.8842 C1            1 RES     
   26515 C1        1302.5900 -1404.2289   419.1695 C1            1 RES     
   26516 C1        1302.8400 -1405.5936   418.9383 C1            1 RES     
   26517 N4        1301.9625 -1406.5945   419.2025 N4            1 RES     
   26518 S2        1302.8179 -1407.9450   418.7825 S2            1 RES     
   26519 N4        1304.2713 -1407.3478   418.2740 N4            1 RES     
   26520 C1        1304.1048 -1406.0132   418.4369 C1            1 RES     
   26521 C1        1305.0899 -1405.0749   418.1601 C1            1 RES     
   26522 H5        1303.5115 -1402.2621   419.0417 H5            1 RES     
   26523 C0        1296.6999 -1403.4771   419.5512 C0            1 RES     
   26524 C0        1296.5997 -1404.2916   418.2134 C0            1 RES     
   26525 C0        1295.9887 -1403.3735   417.0921 C0            1 RES     
   26526 C0        1294.4620 -1403.0656   417.0734 C0            1 RES     
   26527 C0        1293.8490 -1402.2228   418.2111 C0            1 RES     
   26528 C0        1294.4952 -1400.8430   418.4407 C0            1 RES     
   26529 C0        1294.3693 -1399.9068   417.2316 C0            1 RES     
   26530 C0        1294.9757 -1398.5392   417.5385 C0            1 RES     
   26531 C0        1295.7764 -1405.6109   418.2432 C0            1 RES     
   26532 C0        1296.5373 -1406.8522   418.6998 C0            1 RES     
   26533 C0        1295.5887 -1408.0607   418.8039 C0            1 RES     
   26534 C0        1296.3089 -1409.3171   419.3179 C0            1 RES     
   26535 C0        1295.2968 -1410.4316   419.6357 C0            1 RES     
   26536 C0        1295.9181 -1411.6517   420.3405 C0            1 RES     
   26537 C0        1296.4281 -1411.3202   421.7572 C0            1 RES     
   26538 C0        1296.9311 -1412.5653   422.4807 C0            1 RES     
   26539 H6        1295.6829 -1403.3321   419.9417 H6            1 RES     
   26540 H6        1297.0733 -1402.4895   419.2013 H6            1 RES     
   26541 H6        1297.6337 -1404.4967   417.8569 H6            1 RES     
   26542 H6        1296.1806 -1403.8987   416.1293 H6            1 RES     
   26543 H6        1296.5592 -1402.4225   417.0227 H6            1 RES     
   26544 H6        1293.8955 -1404.0186   417.0132 H6            1 RES     
   26545 H6        1294.2589 -1402.5290   416.1223 H6            1 RES     
   26546 H6        1293.8577 -1402.7972   419.1521 H6            1 RES     
   26547 H6        1292.7721 -1402.0686   417.9810 H6            1 RES     
   26548 H6        1295.5616 -1400.9547   418.7099 H6            1 RES     
   26549 H6        1293.9792 -1400.3709   419.3055 H6            1 RES     
   26550 H6        1294.9000 -1400.3345   416.3559 H6            1 RES     
   26551 H6        1293.2958 -1399.7740   416.9753 H6            1 RES     
   26552 H6        1294.4559 -1398.0694   418.4008 H6            1 RES     
   26553 H6        1294.8672 -1397.8761   416.6545 H6            1 RES     
   26554 H6        1296.0561 -1398.6413   417.7765 H6            1 RES     
   26555 H6        1295.4596 -1405.8697   417.2076 H6            1 RES     
   26556 H6        1294.8552 -1405.4422   418.8436 H6            1 RES     
   26557 H6        1297.3688 -1407.0684   417.9940 H6            1 RES     
   26558 H6        1296.9613 -1406.6557   419.6751 H6            1 RES     
   26559 H6        1294.7879 -1407.7907   419.5284 H6            1 RES     
   26560 H6        1295.1163 -1408.2787   417.8213 H6            1 RES     
   26561 H6        1297.0606 -1409.6695   418.5791 H6            1 RES     
   26562 H6        1296.8513 -1409.0516   420.2336 H6            1 RES     
   26563 H6        1294.4919 -1410.0370   420.2949 H6            1 RES     
   26564 H6        1294.8267 -1410.7596   418.6825 H6            1 RES     
   26565 H6        1296.7378 -1412.0749   419.7214 H6            1 RES     
   26566 H6        1295.1200 -1412.4200   420.4368 H6            1 RES     
   26567 H6        1295.6007 -1410.8787   422.3560 H6            1 RES     
   26568 H6        1297.2645 -1410.5980   421.7138 H6            1 RES     
   26569 H6        1297.2812 -1412.2860   423.4955 H6            1 RES     
   26570 H6        1296.1144 -1413.3120   422.5800 H6            1 RES     
   26571 H6        1297.7790 -1413.0189   421.9225 H6            1 RES     
   26572 C0        1297.1501 -1404.9280   421.7524 C0            1 RES     
   26573 C0        1297.9769 -1406.2222   422.0534 C0            1 RES     
   26574 C0        1297.0173 -1407.4117   422.4060 C0            1 RES     
   26575 C0        1296.2977 -1407.4863   423.7753 C0            1 RES     
   26576 C0        1295.1726 -1406.4701   424.0586 C0            1 RES     
   26577 C0        1294.0261 -1406.4331   423.0262 C0            1 RES     
   26578 C0        1293.2959 -1407.7717   422.8571 C0            1 RES     
   26579 C0        1292.1465 -1407.6348   421.8605 C0            1 RES     
   26580 C0        1299.0564 -1406.1409   423.1725 C0            1 RES     
   26581 C0        1300.2578 -1405.2693   422.8479 C0            1 RES     
   26582 C0        1301.3618 -1405.3762   423.9007 C0            1 RES     
   26583 C0        1302.5558 -1404.5119   423.4793 C0            1 RES     
   26584 C0        1303.6951 -1404.5905   424.5026 C0            1 RES     
   26585 C0        1304.9348 -1403.7856   424.0768 C0            1 RES     
   26586 C0        1304.6660 -1402.2767   423.9604 C0            1 RES     
   26587 C0        1305.9403 -1401.5187   423.6042 C0            1 RES     
   26588 H6        1296.8337 -1404.5305   422.7324 H6            1 RES     
   26589 H6        1296.2077 -1405.2458   421.2795 H6            1 RES     
   26590 H6        1298.4862 -1406.5256   421.1179 H6            1 RES     
   26591 H6        1297.6481 -1408.3262   422.3664 H6            1 RES     
   26592 H6        1296.2443 -1407.5208   421.6267 H6            1 RES     
   26593 H6        1297.0431 -1407.4427   424.5953 H6            1 RES     
   26594 H6        1295.8395 -1408.4969   423.8359 H6            1 RES     
   26595 H6        1295.5959 -1405.4568   424.1639 H6            1 RES     
   26596 H6        1294.7378 -1406.7224   425.0501 H6            1 RES     
   26597 H6        1294.3994 -1406.1107   422.0384 H6            1 RES     
   26598 H6        1293.2944 -1405.6686   423.3688 H6            1 RES     
   26599 H6        1293.9946 -1408.5446   422.4736 H6            1 RES     
   26600 H6        1292.8894 -1408.1036   423.8367 H6            1 RES     
   26601 H6        1291.4115 -1406.8825   422.2191 H6            1 RES     
   26602 H6        1291.6300 -1408.6105   421.7463 H6            1 RES     
   26603 H6        1292.5319 -1407.3189   420.8669 H6            1 RES     
   26604 H6        1299.4572 -1407.1688   423.3200 H6            1 RES     
   26605 H6        1298.6011 -1405.8045   424.1291 H6            1 RES     
   26606 H6        1300.6862 -1405.6174   421.8870 H6            1 RES     
   26607 H6        1299.9306 -1404.2178   422.7988 H6            1 RES     
   26608 H6        1300.9745 -1405.0365   424.8856 H6            1 RES     
   26609 H6        1301.6918 -1406.4360   423.9880 H6            1 RES     
   26610 H6        1302.9315 -1404.8616   422.4916 H6            1 RES     
   26611 H6        1302.2056 -1403.4636   423.3806 H6            1 RES     
   26612 H6        1303.3379 -1404.2296   425.4917 H6            1 RES     
   26613 H6        1304.0023 -1405.6542   424.6102 H6            1 RES     
   26614 H6        1305.3133 -1404.1753   423.1060 H6            1 RES     
   26615 H6        1305.7213 -1403.9476   424.8461 H6            1 RES     
   26616 H6        1304.2775 -1401.8922   424.9283 H6            1 RES     
   26617 H6        1303.9182 -1402.0750   423.1657 H6            1 RES     
   26618 H6        1305.7169 -1400.4337   423.5270 H6            1 RES     
   26619 H6        1306.7110 -1401.6687   424.3898 H6            1 RES     
   26620 H6        1306.3379 -1401.8708   422.6283 H6            1 RES     
   26621 C0        1308.9294 -1407.3674   415.1238 C0            1 RES     
   26622 C1        1308.1577 -1406.5906   416.1983 C1            1 RES     
   26623 C1        1308.9672 -1405.9474   417.0686 C1            1 RES     
   26624 S2        1308.1109 -1405.0850   418.2168 S2            1 RES     
   26625 C1        1306.6072 -1405.5511   417.5593 C1            1 RES     
   26626 C1        1306.8004 -1406.3764   416.4455 C1            1 RES     
   26627 C1        1310.3110 -1406.2182   416.7058 C1            1 RES     
   26628 C1        1310.3441 -1407.0503   415.6239 C1            1 RES     
   26629 C1        1311.6474 -1407.3850   415.2425 C1            1 RES     
   26630 C1        1312.6069 -1406.7765   416.0918 C1            1 RES     
   26631 S2        1311.8206 -1405.8128   417.2613 S2            1 RES     
   26632 H3        1306.0004 -1406.7959   415.8516 H3            1 RES     
   26633 H3        1311.8678 -1408.0373   414.4109 H3            1 RES     
   26634 N4        1316.2643 -1406.1196   416.7311 N4            1 RES     
   26635 C1        1314.9078 -1405.9830   416.7073 C1            1 RES     
   26636 C1        1314.0852 -1406.9425   416.0726 C1            1 RES     
   26637 C1        1314.7262 -1408.0490   415.4869 C1            1 RES     
   26638 N4        1314.0853 -1409.0809   414.8819 N4            1 RES     
   26639 S2        1315.3319 -1410.0756   414.4478 S2            1 RES     
   26640 N4        1316.6755 -1409.2800   414.9855 N4            1 RES     
   26641 C1        1316.1437 -1408.1675   415.5466 C1            1 RES     
   26642 C1        1316.8989 -1407.1832   416.1699 C1            1 RES     
   26643 H5        1314.4770 -1405.1100   417.1782 H5            1 RES     
   26644 C0        1308.5986 -1406.5792   413.7990 C0            1 RES     
   26645 C0        1309.2726 -1406.7027   412.3871 C0            1 RES     
   26646 C0        1308.9967 -1405.3911   411.5644 C0            1 RES     
   26647 C0        1307.5976 -1405.1429   410.9264 C0            1 RES     
   26648 C0        1306.3787 -1404.9200   411.8456 C0            1 RES     
   26649 C0        1306.5178 -1403.7788   412.8715 C0            1 RES     
   26650 C0        1306.6986 -1402.4001   412.2228 C0            1 RES     
   26651 C0        1306.7731 -1401.3056   413.2852 C0            1 RES     
   26652 C0        1308.8542 -1407.9114   411.5019 C0            1 RES     
   26653 C0        1309.6202 -1409.2072   411.7515 C0            1 RES     
   26654 C0        1309.0345 -1410.3534   410.9064 C0            1 RES     
   26655 C0        1309.7441 -1411.6897   411.1754 C0            1 RES     
   26656 C0        1308.9899 -1412.8502   410.5034 C0            1 RES     
   26657 C0        1309.5235 -1414.2427   410.8879 C0            1 RES     
   26658 C0        1309.2887 -1414.5761   412.3749 C0            1 RES     
   26659 C0        1309.7170 -1416.0019   412.7070 C0            1 RES     
   26660 H6        1307.5098 -1406.6497   413.6670 H6            1 RES     
   26661 H6        1308.8386 -1405.5319   414.0866 H6            1 RES     
   26662 H6        1310.3761 -1406.7009   412.5310 H6            1 RES     
   26663 H6        1309.6978 -1405.4196   410.7001 H6            1 RES     
   26664 H6        1309.2985 -1404.4987   412.1537 H6            1 RES     
   26665 H6        1307.3547 -1405.9783   410.2365 H6            1 RES     
   26666 H6        1307.6964 -1404.2390   410.2885 H6            1 RES     
   26667 H6        1306.1233 -1405.8574   412.3667 H6            1 RES     
   26668 H6        1305.4989 -1404.7030   411.2012 H6            1 RES     
   26669 H6        1307.3618 -1403.9757   413.5579 H6            1 RES     
   26670 H6        1305.5877 -1403.7606   413.4810 H6            1 RES     
   26671 H6        1307.6357 -1402.3733   411.6290 H6            1 RES     
   26672 H6        1305.8380 -1402.1903   411.5511 H6            1 RES     
   26673 H6        1305.8412 -1401.2886   413.8900 H6            1 RES     
   26674 H6        1306.8960 -1400.3172   412.7946 H6            1 RES     
   26675 H6        1307.6402 -1401.4796   413.9577 H6            1 RES     
   26676 H6        1309.0787 -1407.6810   410.4359 H6            1 RES     
   26677 H6        1307.7544 -1408.0535   411.5902 H6            1 RES     
   26678 H6        1310.6977 -1409.0618   411.5187 H6            1 RES     
   26679 H6        1309.5298 -1409.4634   412.7983 H6            1 RES     
   26680 H6        1307.9631 -1410.4587   411.1895 H6            1 RES     
   26681 H6        1309.0908 -1410.1143   409.8221 H6            1 RES     
   26682 H6        1310.7982 -1411.6527   410.8255 H6            1 RES     
   26683 H6        1309.7661 -1411.8547   412.2597 H6            1 RES     
   26684 H6        1307.9130 -1412.8149   410.7813 H6            1 RES     
   26685 H6        1309.0618 -1412.7225   409.4008 H6            1 RES     
   26686 H6        1310.6030 -1414.3214   410.6376 H6            1 RES     
   26687 H6        1308.9679 -1414.9894   410.2796 H6            1 RES     
   26688 H6        1308.2067 -1414.4721   412.6125 H6            1 RES     
   26689 H6        1309.8663 -1413.8934   413.0256 H6            1 RES     
   26690 H6        1309.5257 -1416.2038   413.7808 H6            1 RES     
   26691 H6        1309.1388 -1416.7312   412.1002 H6            1 RES     
   26692 H6        1310.8026 -1416.1345   412.5064 H6            1 RES     
   26693 C0        1308.4023 -1408.8580   415.1854 C0            1 RES     
   26694 C0        1309.3043 -1410.1291   415.3245 C0            1 RES     
   26695 C0        1308.5990 -1411.3710   414.6763 C0            1 RES     
   26696 C0        1307.4068 -1412.0732   415.3719 C0            1 RES     
   26697 C0        1306.0620 -1411.3209   415.4389 C0            1 RES     
   26698 C0        1305.4899 -1410.8472   414.0861 C0            1 RES     
   26699 C0        1305.2419 -1411.9810   413.0827 C0            1 RES     
   26700 C0        1304.6283 -1411.4345   411.7951 C0            1 RES     
   26701 C0        1309.7531 -1410.5381   416.7583 C0            1 RES     
   26702 C0        1310.7333 -1409.5867   417.4235 C0            1 RES     
   26703 C0        1311.2763 -1410.1328   418.7447 C0            1 RES     
   26704 C0        1312.2928 -1409.1445   419.3275 C0            1 RES     
   26705 C0        1312.8724 -1409.6513   420.6537 C0            1 RES     
   26706 C0        1313.9449 -1408.7127   421.2324 C0            1 RES     
   26707 C0        1313.4009 -1407.3209   421.5919 C0            1 RES     
   26708 C0        1314.4853 -1406.4548   422.2240 C0            1 RES     
   26709 H6        1307.6152 -1408.9539   415.9534 H6            1 RES     
   26710 H6        1307.8553 -1408.9490   414.2339 H6            1 RES     
   26711 H6        1310.2186 -1409.9650   414.7213 H6            1 RES     
   26712 H6        1309.3843 -1412.1542   414.5994 H6            1 RES     
   26713 H6        1308.2805 -1411.1336   413.6473 H6            1 RES     
   26714 H6        1307.6995 -1412.3881   416.3942 H6            1 RES     
   26715 H6        1307.2209 -1413.0121   414.8073 H6            1 RES     
   26716 H6        1306.1463 -1410.4554   416.1177 H6            1 RES     
   26717 H6        1305.3212 -1412.0042   415.9081 H6            1 RES     
   26718 H6        1306.1587 -1410.1046   413.6170 H6            1 RES     
   26719 H6        1304.5234 -1410.3373   414.2938 H6            1 RES     
   26720 H6        1306.1988 -1412.4807   412.8237 H6            1 RES     
   26721 H6        1304.5498 -1412.7292   413.5257 H6            1 RES     
   26722 H6        1303.6552 -1410.9426   412.0091 H6            1 RES     
   26723 H6        1304.4575 -1412.2647   411.0785 H6            1 RES     
   26724 H6        1305.3118 -1410.6947   411.3248 H6            1 RES     
   26725 H6        1310.2848 -1411.5121   416.6727 H6            1 RES     
   26726 H6        1308.8692 -1410.6811   417.4170 H6            1 RES     
   26727 H6        1311.5983 -1409.4528   416.7438 H6            1 RES     
   26728 H6        1310.2184 -1408.6344   417.6312 H6            1 RES     
   26729 H6        1310.4390 -1410.2842   419.4599 H6            1 RES     
   26730 H6        1311.7793 -1411.1097   418.5651 H6            1 RES     
   26731 H6        1313.1235 -1409.0010   418.6006 H6            1 RES     
   26732 H6        1311.7796 -1408.1731   419.4839 H6            1 RES     
   26733 H6        1312.0546 -1409.7849   421.3950 H6            1 RES     
   26734 H6        1313.3479 -1410.6413   420.4774 H6            1 RES     
   26735 H6        1314.7804 -1408.6126   420.5047 H6            1 RES     
   26736 H6        1314.3440 -1409.1871   422.1556 H6            1 RES     
   26737 H6        1312.5592 -1407.4246   422.3105 H6            1 RES     
   26738 H6        1313.0370 -1406.7987   420.6828 H6            1 RES     
   26739 H6        1314.0649 -1405.4576   422.4730 H6            1 RES     
   26740 H6        1314.8607 -1406.9262   423.1570 H6            1 RES     
   26741 H6        1315.3305 -1406.3184   421.5160 H6            1 RES     
   26742 C0        1322.0872 -1407.7666   414.7709 C0            1 RES     
   26743 C1        1320.7722 -1407.5775   415.5380 C1            1 RES     
   26744 C1        1320.9570 -1407.3791   416.8620 C1            1 RES     
   26745 S2        1319.5164 -1407.1489   417.6787 S2            1 RES     
   26746 C1        1318.5927 -1407.3015   416.2526 C1            1 RES     
   26747 C1        1319.4305 -1407.5293   415.1548 C1            1 RES     
   26748 C1        1322.3494 -1407.4258   417.1262 C1            1 RES     
   26749 C1        1323.0354 -1407.6777   415.9729 C1            1 RES     
   26750 C1        1324.4156 -1407.7739   416.1782 C1            1 RES     
   26751 C1        1324.7486 -1407.5936   417.5452 C1            1 RES     
   26752 S2        1323.3361 -1407.2811   418.4518 S2            1 RES     
   26753 H3        1319.0835 -1407.6531   414.1384 H3            1 RES     
   26754 H3        1325.1162 -1407.9745   415.3817 H3            1 RES     
   26755 N4        1327.5164 -1407.2135   420.0774 N4            1 RES     
   26756 C1        1326.3089 -1407.1119   419.4521 C1            1 RES     
   26757 C1        1326.0877 -1407.6991   418.1847 C1            1 RES     
   26758 C1        1327.1594 -1408.4063   417.6103 C1            1 RES     
   26759 N4        1327.1015 -1409.0674   416.4267 N4            1 RES     
   26760 S2        1328.6114 -1409.7295   416.3087 S2            1 RES     
   26761 N4        1329.3679 -1409.2326   417.6901 N4            1 RES     
   26762 C1        1328.4006 -1408.5066   418.3005 C1            1 RES     
   26763 C1        1328.5618 -1407.8935   419.5357 C1            1 RES     
   26764 H5        1325.5251 -1406.5563   419.9485 H5            1 RES     
   26765 C0        1322.1733 -1406.4724   413.8746 C0            1 RES     
   26766 C0        1323.3909 -1405.9286   413.0472 C0            1 RES     
   26767 C0        1323.1873 -1404.3934   412.7732 C0            1 RES     
   26768 C0        1322.1770 -1403.9156   411.6884 C0            1 RES     
   26769 C0        1320.6688 -1404.1603   411.9029 C0            1 RES     
   26770 C0        1320.0836 -1403.6035   413.2151 C0            1 RES     
   26771 C0        1320.1892 -1402.0767   413.3253 C0            1 RES     
   26772 C0        1319.5431 -1401.5796   414.6166 C0            1 RES     
   26773 C0        1323.6885 -1406.6156   411.6837 C0            1 RES     
   26774 C0        1324.5598 -1407.8664   411.7524 C0            1 RES     
   26775 C0        1324.6793 -1408.5196   410.3631 C0            1 RES     
   26776 C0        1325.5026 -1409.8165   410.4041 C0            1 RES     
   26777 C0        1325.4048 -1410.5646   409.0631 C0            1 RES     
   26778 C0        1326.0387 -1411.9678   409.0875 C0            1 RES     
   26779 C0        1325.2816 -1412.9428   410.0113 C0            1 RES     
   26780 C0        1325.8536 -1414.3546   409.9305 C0            1 RES     
   26781 H6        1321.2948 -1406.5004   413.2147 H6            1 RES     
   26782 H6        1322.0119 -1405.6631   414.6205 H6            1 RES     
   26783 H6        1324.2934 -1405.9669   413.6970 H6            1 RES     
   26784 H6        1324.1737 -1404.0120   412.4250 H6            1 RES     
   26785 H6        1322.9888 -1403.8574   413.7261 H6            1 RES     
   26786 H6        1322.4562 -1404.3541   410.7073 H6            1 RES     
   26787 H6        1322.3192 -1402.8189   411.5844 H6            1 RES     
   26788 H6        1320.4473 -1405.2376   411.8263 H6            1 RES     
   26789 H6        1320.1222 -1403.6955   411.0535 H6            1 RES     
   26790 H6        1320.5763 -1404.0702   414.0877 H6            1 RES     
   26791 H6        1319.0079 -1403.8842   413.2481 H6            1 RES     
   26792 H6        1321.2537 -1401.7630   413.3253 H6            1 RES     
   26793 H6        1319.6727 -1401.6056   412.4611 H6            1 RES     
   26794 H6        1318.4682 -1401.8592   414.6447 H6            1 RES     
   26795 H6        1319.6238 -1400.4736   414.6725 H6            1 RES     
   26796 H6        1320.0565 -1402.0191   415.4985 H6            1 RES     
   26797 H6        1324.2824 -1405.9230   411.0454 H6            1 RES     
   26798 H6        1322.7240 -1406.8073   411.1637 H6            1 RES     
   26799 H6        1325.5653 -1407.6069   412.1494 H6            1 RES     
   26800 H6        1324.0972 -1408.5702   412.4309 H6            1 RES     
   26801 H6        1323.6481 -1408.7659   410.0239 H6            1 RES     
   26802 H6        1325.1320 -1407.8147   409.6321 H6            1 RES     
   26803 H6        1326.5633 -1409.6012   410.6562 H6            1 RES     
   26804 H6        1325.1007 -1410.4534   411.2016 H6            1 RES     
   26805 H6        1324.3376 -1410.6833   408.7713 H6            1 RES     
   26806 H6        1325.9054 -1409.9504   408.2824 H6            1 RES     
   26807 H6        1327.1068 -1411.9002   409.3855 H6            1 RES     
   26808 H6        1325.9891 -1412.3712   408.0525 H6            1 RES     
   26809 H6        1324.2107 -1412.9823   409.7118 H6            1 RES     
   26810 H6        1325.3476 -1412.6152   411.0655 H6            1 RES     
   26811 H6        1325.2786 -1415.0245   410.6019 H6            1 RES     
   26812 H6        1325.7794 -1414.7436   408.8924 H6            1 RES     
   26813 H6        1326.9187 -1414.3573   410.2496 H6            1 RES     
   26814 C0        1321.9548 -1409.1356   413.9885 C0            1 RES     
   26815 C0        1322.9859 -1410.3113   414.0463 C0            1 RES     
   26816 C0        1322.9401 -1411.1416   412.7164 C0            1 RES     
   26817 C0        1321.7701 -1412.1094   412.4120 C0            1 RES     
   26818 C0        1320.3880 -1411.4997   412.1008 C0            1 RES     
   26819 C0        1320.3499 -1410.4786   410.9442 C0            1 RES     
   26820 C0        1320.8287 -1411.0415   409.5997 C0            1 RES     
   26821 C0        1320.7095 -1409.9859   408.5021 C0            1 RES     
   26822 C0        1322.8665 -1411.3140   415.2314 C0            1 RES     
   26823 C0        1323.2143 -1410.7441   416.5962 C0            1 RES     
   26824 C0        1323.2576 -1411.8162   417.6860 C0            1 RES     
   26825 C0        1323.6633 -1411.1752   419.0181 C0            1 RES     
   26826 C0        1323.7271 -1412.2136   420.1447 C0            1 RES     
   26827 C0        1324.1953 -1411.6140   421.4816 C0            1 RES     
   26828 C0        1323.2365 -1410.5480   422.0355 C0            1 RES     
   26829 C0        1323.7097 -1410.0368   423.3921 C0            1 RES     
   26830 H6        1320.9639 -1409.5863   414.1715 H6            1 RES     
   26831 H6        1321.9025 -1408.7989   412.9413 H6            1 RES     
   26832 H6        1324.0018 -1409.8713   414.0807 H6            1 RES     
   26833 H6        1323.8450 -1411.7872   412.7360 H6            1 RES     
   26834 H6        1323.0422 -1410.4719   411.8459 H6            1 RES     
   26835 H6        1321.6667 -1412.8458   413.2347 H6            1 RES     
   26836 H6        1322.0706 -1412.6955   411.5169 H6            1 RES     
   26837 H6        1319.9677 -1411.0330   413.0078 H6            1 RES     
   26838 H6        1319.7040 -1412.3379   411.8455 H6            1 RES     
   26839 H6        1320.9569 -1409.5891   411.1875 H6            1 RES     
   26840 H6        1319.2962 -1410.1399   410.8339 H6            1 RES     
   26841 H6        1321.8935 -1411.3481   409.6690 H6            1 RES     
   26842 H6        1320.2138 -1411.9246   409.3224 H6            1 RES     
   26843 H6        1319.6515 -1409.6664   408.3865 H6            1 RES     
   26844 H6        1321.0617 -1410.4060   407.5371 H6            1 RES     
   26845 H6        1321.3304 -1409.0981   408.7504 H6            1 RES     
   26846 H6        1323.5989 -1412.1317   415.0474 H6            1 RES     
   26847 H6        1321.8486 -1411.7596   415.2634 H6            1 RES     
   26848 H6        1324.2267 -1410.2977   416.5351 H6            1 RES     
   26849 H6        1322.4499 -1410.0008   416.8759 H6            1 RES     
   26850 H6        1322.2584 -1412.2936   417.7817 H6            1 RES     
   26851 H6        1324.0055 -1412.5945   417.4132 H6            1 RES     
   26852 H6        1324.6635 -1410.6997   418.9070 H6            1 RES     
   26853 H6        1322.9177 -1410.3916   419.2656 H6            1 RES     
   26854 H6        1322.7297 -1412.6866   420.2772 H6            1 RES     
   26855 H6        1324.4527 -1413.0057   419.8561 H6            1 RES     
   26856 H6        1325.2104 -1411.1765   421.3555 H6            1 RES     
   26857 H6        1324.2647 -1412.4453   422.2169 H6            1 RES     
   26858 H6        1322.2208 -1410.9845   422.1502 H6            1 RES     
   26859 H6        1323.1805 -1409.6796   421.3469 H6            1 RES     
   26860 H6        1322.9998 -1409.2699   423.7675 H6            1 RES     
   26861 H6        1323.7537 -1410.8705   424.1247 H6            1 RES     
   26862 H6        1324.7163 -1409.5758   423.3002 H6            1 RES     
   26863 C0        1333.8272 -1407.6627   420.7352 C0            1 RES     
   26864 C1        1332.3077 -1407.8709   420.7706 C1            1 RES     
   26865 C1        1331.8599 -1408.2885   421.9755 C1            1 RES     
   26866 S2        1330.1999 -1408.4855   422.0046 S2            1 RES     
   26867 C1        1330.0346 -1407.9977   420.3783 C1            1 RES     
   26868 C1        1331.2868 -1407.6853   419.8365 C1            1 RES     
   26869 C1        1332.9753 -1408.4178   422.8414 C1            1 RES     
   26870 C1        1334.1241 -1408.1053   422.1732 C1            1 RES     
   26871 C1        1335.2656 -1408.2524   422.9679 C1            1 RES     
   26872 C1        1334.9333 -1408.7022   424.2716 C1            1 RES     
   26873 S2        1333.2402 -1408.8657   424.4165 S2            1 RES     
   26874 H3        1331.4445 -1407.3440   418.8229 H3            1 RES     
   26875 H3        1336.2636 -1408.0550   422.6063 H3            1 RES     
   26876 N4        1336.1860 -1409.4451   427.7495 N4            1 RES     
   26877 C1        1335.3724 -1409.0994   426.7113 C1            1 RES     
   26878 C1        1335.8568 -1409.0549   425.3833 C1            1 RES     
   26879 C1        1337.2050 -1409.4012   425.1811 C1            1 RES     
   26880 N4        1337.8141 -1409.4567   423.9698 N4            1 RES     
   26881 S2        1339.3407 -1409.9592   424.3559 S2            1 RES     
   26882 N4        1339.2970 -1410.1236   425.9986 N4            1 RES     
   26883 C1        1338.0202 -1409.7744   426.2871 C1            1 RES     
   26884 C1        1337.4909 -1409.7826   427.5706 C1            1 RES     
   26885 H5        1334.3448 -1408.8463   426.9338 H5            1 RES     
   26886 C0        1333.9753 -1406.1014   420.5728 C0            1 RES     
   26887 C0        1335.2611 -1405.2146   420.7251 C0            1 RES     
   26888 C0        1334.8347 -1403.7266   421.0028 C0            1 RES     
   26889 C0        1334.2989 -1402.8330   419.8450 C0            1 RES     
   26890 C0        1332.9484 -1403.1827   419.1860 C0            1 RES     
   26891 C0        1331.7477 -1403.2929   420.1453 C0            1 RES     
   26892 C0        1331.4304 -1401.9791   420.8715 C0            1 RES     
   26893 C0        1330.1995 -1402.1345   421.7620 C0            1 RES     
   26894 C0        1336.2632 -1405.2038   419.5355 C0            1 RES     
   26895 C0        1337.2926 -1406.3302   419.5308 C0            1 RES     
   26896 C0        1338.1420 -1406.2817   418.2474 C0            1 RES     
   26897 C0        1339.1522 -1407.4378   418.1799 C0            1 RES     
   26898 C0        1339.8139 -1407.5006   416.7922 C0            1 RES     
   26899 C0        1340.6909 -1408.7483   416.5787 C0            1 RES     
   26900 C0        1339.8690 -1410.0527   416.5596 C0            1 RES     
   26901 C0        1340.7386 -1411.2618   416.2302 C0            1 RES     
   26902 H6        1333.4946 -1405.8480   419.6174 H6            1 RES     
   26903 H6        1333.3253 -1405.7209   421.3913 H6            1 RES     
   26904 H6        1335.7828 -1405.5220   421.6587 H6            1 RES     
   26905 H6        1335.7535 -1403.2065   421.3561 H6            1 RES     
   26906 H6        1334.1292 -1403.6840   421.8603 H6            1 RES     
   26907 H6        1335.0637 -1402.7740   419.0422 H6            1 RES     
   26908 H6        1334.2068 -1401.8049   420.2552 H6            1 RES     
   26909 H6        1333.0435 -1404.1136   418.6030 H6            1 RES     
   26910 H6        1332.7211 -1402.3966   418.4331 H6            1 RES     
   26911 H6        1331.9186 -1404.0924   420.8895 H6            1 RES     
   26912 H6        1330.8607 -1403.5826   419.5402 H6            1 RES     
   26913 H6        1332.2857 -1401.6750   421.5098 H6            1 RES     
   26914 H6        1331.2340 -1401.1800   420.1241 H6            1 RES     
   26915 H6        1329.3149 -1402.4210   421.1538 H6            1 RES     
   26916 H6        1329.9834 -1401.1718   422.2712 H6            1 RES     
   26917 H6        1330.3781 -1402.9134   422.5339 H6            1 RES     
   26918 H6        1336.8885 -1404.2841   419.5903 H6            1 RES     
   26919 H6        1335.6869 -1405.1616   418.5849 H6            1 RES     
   26920 H6        1337.9408 -1406.2554   420.4310 H6            1 RES     
   26921 H6        1336.7677 -1407.2751   419.5669 H6            1 RES     
   26922 H6        1337.4437 -1406.3714   417.3852 H6            1 RES     
   26923 H6        1338.6804 -1405.3123   418.1656 H6            1 RES     
   26924 H6        1339.9207 -1407.3355   418.9761 H6            1 RES     
   26925 H6        1338.6139 -1408.3755   418.3647 H6            1 RES     
   26926 H6        1339.0336 -1407.4989   415.9989 H6            1 RES     
   26927 H6        1340.4367 -1406.5885   416.6598 H6            1 RES     
   26928 H6        1341.4814 -1408.7984   417.3577 H6            1 RES     
   26929 H6        1341.1828 -1408.6411   415.5873 H6            1 RES     
   26930 H6        1339.0699 -1409.9769   415.7890 H6            1 RES     
   26931 H6        1339.4012 -1410.2358   417.5448 H6            1 RES     
   26932 H6        1340.1104 -1412.1759   416.2192 H6            1 RES     
   26933 H6        1341.2069 -1411.1410   415.2299 H6            1 RES     
   26934 H6        1341.5342 -1411.3843   416.9971 H6            1 RES     
   26935 C0        1334.3691 -1408.5325   419.5296 C0            1 RES     
   26936 C0        1335.5248 -1409.5834   419.6229 C0            1 RES     
   26937 C0        1336.2468 -1409.7234   418.2376 C0            1 RES     
   26938 C0        1335.5838 -1410.4754   417.0572 C0            1 RES     
   26939 C0        1334.3635 -1409.8225   416.3764 C0            1 RES     
   26940 C0        1334.5787 -1408.3900   415.8441 C0            1 RES     
   26941 C0        1335.7016 -1408.2729   414.8052 C0            1 RES     
   26942 C0        1335.8125 -1406.8382   414.2931 C0            1 RES     
   26943 C0        1335.1556 -1411.0160   420.1081 C0            1 RES     
   26944 C0        1334.7446 -1411.1172   421.5673 C0            1 RES     
   26945 C0        1334.5746 -1412.5648   422.0300 C0            1 RES     
   26946 C0        1334.2111 -1412.5865   423.5191 C0            1 RES     
   26947 C0        1334.0354 -1414.0203   424.0336 C0            1 RES     
   26948 C0        1333.7343 -1414.0795   425.5409 C0            1 RES     
   26949 C0        1332.4081 -1413.4014   425.9203 C0            1 RES     
   26950 C0        1332.1241 -1413.5483   427.4114 C0            1 RES     
   26951 H6        1333.5328 -1409.0398   419.0178 H6            1 RES     
   26952 H6        1334.6880 -1407.7600   418.8124 H6            1 RES     
   26953 H6        1336.2931 -1409.1835   420.3133 H6            1 RES     
   26954 H6        1337.1824 -1410.2872   418.4440 H6            1 RES     
   26955 H6        1336.5463 -1408.7303   417.8625 H6            1 RES     
   26956 H6        1335.3192 -1411.5063   417.3685 H6            1 RES     
   26957 H6        1336.3657 -1410.5863   416.2753 H6            1 RES     
   26958 H6        1333.5004 -1409.8261   417.0633 H6            1 RES     
   26959 H6        1334.0736 -1410.4701   415.5206 H6            1 RES     
   26960 H6        1334.7942 -1407.6930   416.6727 H6            1 RES     
   26961 H6        1333.6244 -1408.0622   415.3760 H6            1 RES     
   26962 H6        1336.6752 -1408.5533   415.2590 H6            1 RES     
   26963 H6        1335.4920 -1408.9490   413.9486 H6            1 RES     
   26964 H6        1334.8613 -1406.5251   413.8114 H6            1 RES     
   26965 H6        1336.6298 -1406.7683   413.5455 H6            1 RES     
   26966 H6        1336.0385 -1406.1446   415.1319 H6            1 RES     
   26967 H6        1336.0680 -1411.6451   420.0046 H6            1 RES     
   26968 H6        1334.3587 -1411.4510   419.4668 H6            1 RES     
   26969 H6        1335.5490 -1410.6683   422.1834 H6            1 RES     
   26970 H6        1333.7814 -1410.5983   421.7016 H6            1 RES     
   26971 H6        1333.7745 -1413.0566   421.4355 H6            1 RES     
   26972 H6        1335.5288 -1413.1184   421.8796 H6            1 RES     
   26973 H6        1335.0191 -1412.0893   424.1013 H6            1 RES     
   26974 H6        1333.2684 -1412.0167   423.6529 H6            1 RES     
   26975 H6        1333.2202 -1414.5247   423.4705 H6            1 RES     
   26976 H6        1334.9801 -1414.5795   423.8546 H6            1 RES     
   26977 H6        1334.5707 -1413.6093   426.1040 H6            1 RES     
   26978 H6        1333.6804 -1415.1517   425.8311 H6            1 RES     
   26979 H6        1331.5758 -1413.8657   425.3483 H6            1 RES     
   26980 H6        1332.4452 -1412.3170   425.6875 H6            1 RES     
   26981 H6        1331.1622 -1413.0504   427.6563 H6            1 RES     
   26982 H6        1332.0496 -1414.6219   427.6861 H6            1 RES     
   26983 H6        1332.9330 -1413.0726   428.0062 H6            1 RES     
   26984 C0        1341.5269 -1409.9990   431.1595 C0            1 RES     
   26985 C1        1340.2339 -1410.2354   430.3686 C1            1 RES     
   26986 C1        1339.4304 -1411.1627   430.9351 C1            1 RES     
   26987 S2        1338.0146 -1411.3895   430.0752 S2            1 RES     
   26988 C1        1338.4447 -1410.2229   428.9071 C1            1 RES     
   26989 C1        1339.6944 -1409.6708   429.2112 C1            1 RES     
   26990 C1        1340.0680 -1411.6442   432.1066 C1            1 RES     
   26991 C1        1341.2810 -1411.0372   432.2612 C1            1 RES     
   26992 C1        1341.9758 -1411.5016   433.3827 C1            1 RES     
   26993 C1        1341.2390 -1412.4997   434.0704 C1            1 RES     
   26994 S2        1339.7371 -1412.7498   433.2982 S2            1 RES     
   26995 H3        1340.1814 -1408.9045   428.6243 H3            1 RES     
   26996 H3        1342.9543 -1411.1394   433.6602 H3            1 RES     
   26997 N4        1341.0334 -1414.7062   437.1210 N4            1 RES     
   26998 C1        1340.6812 -1413.9471   436.0445 C1            1 RES     
   26999 C1        1341.6576 -1413.2958   435.2554 C1            1 RES     
   27000 C1        1343.0036 -1413.4824   435.6186 C1            1 RES     
   27001 N4        1344.0633 -1412.9703   434.9431 N4            1 RES     
   27002 S2        1345.3524 -1413.5581   435.7942 S2            1 RES     
   27003 N4        1344.6560 -1414.4485   436.9982 N4            1 RES     
   27004 C1        1343.3350 -1414.2967   436.7385 C1            1 RES     
   27005 C1        1342.3296 -1414.8965   437.4848 C1            1 RES     
   27006 H5        1339.6288 -1413.8455   435.8171 H5            1 RES     
   27007 C0        1341.3542 -1408.5301   431.7057 C0            1 RES     
   27008 C0        1342.2021 -1407.7789   432.7919 C0            1 RES     
   27009 C0        1341.3579 -1406.5875   433.3760 C0            1 RES     
   27010 C0        1341.1690 -1405.2795   432.5518 C0            1 RES     
   27011 C0        1340.3521 -1405.3240   431.2437 C0            1 RES     
   27012 C0        1338.9220 -1405.8836   431.3701 C0            1 RES     
   27013 C0        1338.0241 -1405.0477   432.2918 C0            1 RES     
   27014 C0        1336.6077 -1405.6170   432.3321 C0            1 RES     
   27015 C0        1343.5801 -1407.2085   432.3500 C0            1 RES     
   27016 C0        1344.7491 -1408.1872   432.4125 C0            1 RES     
   27017 C0        1346.0245 -1407.5442   431.8374 C0            1 RES     
   27018 C0        1347.2105 -1408.5214   431.8299 C0            1 RES     
   27019 C0        1348.3927 -1407.9348   431.0388 C0            1 RES     
   27020 C0        1349.5460 -1408.9308   430.8167 C0            1 RES     
   27021 C0        1349.1461 -1410.1039   429.8996 C0            1 RES     
   27022 C0        1350.3331 -1411.0132   429.5979 C0            1 RES     
   27023 H6        1341.2796 -1407.8832   430.8204 H6            1 RES     
   27024 H6        1340.3483 -1408.5758   432.1785 H6            1 RES     
   27025 H6        1342.3345 -1408.4633   433.6593 H6            1 RES     
   27026 H6        1341.8871 -1406.2626   434.3001 H6            1 RES     
   27027 H6        1340.3675 -1406.9534   433.7221 H6            1 RES     
   27028 H6        1342.1640 -1404.8463   432.3165 H6            1 RES     
   27029 H6        1340.6700 -1404.5503   433.2249 H6            1 RES     
   27030 H6        1340.9039 -1405.8883   430.4739 H6            1 RES     
   27031 H6        1340.2862 -1404.2879   430.8456 H6            1 RES     
   27032 H6        1338.9454 -1406.9290   431.7288 H6            1 RES     
   27033 H6        1338.4728 -1405.8885   430.3527 H6            1 RES     
   27034 H6        1338.4282 -1405.0457   433.3254 H6            1 RES     
   27035 H6        1337.9800 -1404.0017   431.9181 H6            1 RES     
   27036 H6        1336.1611 -1405.6177   431.3148 H6            1 RES     
   27037 H6        1335.9739 -1404.9939   432.9976 H6            1 RES     
   27038 H6        1336.6211 -1406.6565   432.7243 H6            1 RES     
   27039 H6        1343.8844 -1406.3990   433.0513 H6            1 RES     
   27040 H6        1343.4701 -1406.7542   431.3405 H6            1 RES     
   27041 H6        1344.9154 -1408.5128   433.4625 H6            1 RES     
   27042 H6        1344.4998 -1409.0580   431.8216 H6            1 RES     
   27043 H6        1345.8018 -1407.2503   430.7871 H6            1 RES     
   27044 H6        1346.2992 -1406.6306   432.4085 H6            1 RES     
   27045 H6        1347.5195 -1408.7728   432.8674 H6            1 RES     
   27046 H6        1346.8846 -1409.4534   431.3519 H6            1 RES     
   27047 H6        1348.0473 -1407.5924   430.0380 H6            1 RES     
   27048 H6        1348.7762 -1407.0475   431.5892 H6            1 RES     
   27049 H6        1349.9179 -1409.3096   431.7927 H6            1 RES     
   27050 H6        1350.3713 -1408.3756   430.3194 H6            1 RES     
   27051 H6        1348.7572 -1409.7061   428.9360 H6            1 RES     
   27052 H6        1348.3627 -1410.7233   430.3745 H6            1 RES     
   27053 H6        1350.0062 -1411.8375   428.9317 H6            1 RES     
   27054 H6        1351.1382 -1410.4424   429.0875 H6            1 RES     
   27055 H6        1350.7318 -1411.4510   430.5390 H6            1 RES     
   27056 C0        1342.7189 -1410.2170   430.1420 C0            1 RES     
   27057 C0        1343.9388 -1411.1698   430.3720 C0            1 RES     
   27058 C0        1345.1909 -1410.6517   429.5823 C0            1 RES     
   27059 C0        1345.2917 -1410.8036   428.0443 C0            1 RES     
   27060 C0        1344.3594 -1409.9415   427.1688 C0            1 RES     
   27061 C0        1344.4328 -1408.4186   427.4079 C0            1 RES     
   27062 C0        1345.8271 -1407.8188   427.1839 C0            1 RES     
   27063 C0        1345.8004 -1406.3054   427.3890 C0            1 RES     
   27064 C0        1343.7508 -1412.6750   430.0210 C0            1 RES     
   27065 C0        1342.7962 -1413.4345   430.9269 C0            1 RES     
   27066 C0        1342.7953 -1414.9383   430.6493 C0            1 RES     
   27067 C0        1341.8507 -1415.6393   431.6323 C0            1 RES     
   27068 C0        1341.8195 -1417.1544   431.3979 C0            1 RES     
   27069 C0        1340.9307 -1417.8957   432.4111 C0            1 RES     
   27070 C0        1339.4498 -1417.4929   432.3255 C0            1 RES     
   27071 C0        1338.6035 -1418.3046   433.3004 C0            1 RES     
   27072 H6        1342.3262 -1410.4570   429.1387 H6            1 RES     
   27073 H6        1343.1184 -1409.1966   430.0322 H6            1 RES     
   27074 H6        1344.2219 -1411.1079   431.4410 H6            1 RES     
   27075 H6        1346.0548 -1411.2264   429.9816 H6            1 RES     
   27076 H6        1345.3758 -1409.5898   429.8164 H6            1 RES     
   27077 H6        1345.1733 -1411.8696   427.7627 H6            1 RES     
   27078 H6        1346.3330 -1410.5311   427.7683 H6            1 RES     
   27079 H6        1343.3146 -1410.2751   427.2868 H6            1 RES     
   27080 H6        1344.6234 -1410.1385   426.1071 H6            1 RES     
   27081 H6        1344.1037 -1408.1669   428.4313 H6            1 RES     
   27082 H6        1343.7200 -1407.9364   426.7033 H6            1 RES     
   27083 H6        1346.5517 -1408.2518   427.9050 H6            1 RES     
   27084 H6        1346.1684 -1408.0391   426.1495 H6            1 RES     
   27085 H6        1345.0995 -1405.8302   426.6695 H6            1 RES     
   27086 H6        1346.8152 -1405.8864   427.2267 H6            1 RES     
   27087 H6        1345.4769 -1406.0612   428.4241 H6            1 RES     
   27088 H6        1344.7413 -1413.1684   430.1408 H6            1 RES     
   27089 H6        1343.4302 -1412.7911   428.9630 H6            1 RES     
   27090 H6        1343.1307 -1413.2945   431.9741 H6            1 RES     
   27091 H6        1341.7744 -1413.0545   430.7640 H6            1 RES     
   27092 H6        1342.4656 -1415.1263   429.6046 H6            1 RES     
   27093 H6        1343.8244 -1415.3421   430.7818 H6            1 RES     
   27094 H6        1342.1913 -1415.4409   432.6733 H6            1 RES     
   27095 H6        1340.8349 -1415.2133   431.4986 H6            1 RES     
   27096 H6        1341.4663 -1417.3681   430.3656 H6            1 RES     
   27097 H6        1342.8538 -1417.5505   431.5012 H6            1 RES     
   27098 H6        1341.3106 -1417.7119   433.4405 H6            1 RES     
   27099 H6        1341.0152 -1418.9841   432.1993 H6            1 RES     
   27100 H6        1339.0759 -1417.6672   431.2933 H6            1 RES     
   27101 H6        1339.3232 -1416.4199   432.5788 H6            1 RES     
   27102 H6        1337.5409 -1417.9934   433.2168 H6            1 RES     
   27103 H6        1338.6770 -1419.3878   433.0659 H6            1 RES     
   27104 H6        1338.9446 -1418.1310   434.3434 H6            1 RES     
   27105 C0        1344.3834 -1416.6202   442.1782 C0            1 RES     
   27106 C1        1343.6457 -1416.5028   440.8382 C1            1 RES     
   27107 C1        1342.9236 -1417.6042   440.5347 C1            1 RES     
   27108 S2        1342.1057 -1417.4499   439.0847 S2            1 RES     
   27109 C1        1342.7001 -1415.8717   438.8271 C1            1 RES     
   27110 C1        1343.5316 -1415.4884   439.8858 C1            1 RES     
   27111 C1        1343.0977 -1418.5487   441.5780 C1            1 RES     
   27112 C1        1343.9476 -1418.0496   442.5228 C1            1 RES     
   27113 C1        1344.1889 -1418.9550   443.5612 C1            1 RES     
   27114 C1        1343.4904 -1420.1728   443.3578 C1            1 RES     
   27115 S2        1342.5655 -1420.0808   441.9258 S2            1 RES     
   27116 H3        1344.0241 -1414.5286   439.9574 H3            1 RES     
   27117 H3        1344.8398 -1418.7352   444.3940 H3            1 RES     
   27118 N4        1342.5401 -1423.5243   444.8004 N4            1 RES     
   27119 C1        1342.5090 -1422.3687   444.0774 C1            1 RES     
   27120 C1        1343.5423 -1421.4089   444.1839 C1            1 RES     
   27121 C1        1344.6083 -1421.7088   445.0511 C1            1 RES     
   27122 N4        1345.6991 -1420.9225   445.2337 N4            1 RES     
   27123 S2        1346.6038 -1421.8020   446.3014 S2            1 RES     
   27124 N4        1345.6958 -1423.1563   446.5641 N4            1 RES     
   27125 C1        1344.6159 -1422.9337   445.7769 C1            1 RES     
   27126 C1        1343.5633 -1423.8289   445.6425 C1            1 RES     
   27127 H5        1341.6620 -1422.1993   443.4267 H5            1 RES     
   27128 C0        1343.6514 -1415.5615   443.0887 C0            1 RES     
   27129 C0        1343.7526 -1415.3635   444.6423 C0            1 RES     
   27130 C0        1342.4839 -1414.5846   445.1493 C0            1 RES     
   27131 C0        1342.3579 -1413.0499   444.9151 C0            1 RES     
   27132 C0        1342.2101 -1412.5168   443.4748 C0            1 RES     
   27133 C0        1341.0400 -1413.1055   442.6633 C0            1 RES     
   27134 C0        1339.6656 -1412.7975   443.2720 C0            1 RES     
   27135 C0        1338.5463 -1413.3557   442.3958 C0            1 RES     
   27136 C0        1345.0084 -1414.6236   445.1852 C0            1 RES     
   27137 C0        1346.2358 -1415.4978   445.4253 C0            1 RES     
   27138 C0        1347.4414 -1414.6353   445.8419 C0            1 RES     
   27139 C0        1348.7130 -1415.4762   446.0358 C0            1 RES     
   27140 C0        1349.9422 -1414.5684   446.2159 C0            1 RES     
   27141 C0        1351.2809 -1415.3297   446.2184 C0            1 RES     
   27142 C0        1351.5997 -1415.9700   444.8526 C0            1 RES     
   27143 C0        1352.9810 -1416.6173   444.8424 C0            1 RES     
   27144 H6        1343.8084 -1414.5860   442.6074 H6            1 RES     
   27145 H6        1342.5828 -1415.8389   442.9531 H6            1 RES     
   27146 H6        1343.6626 -1416.3629   445.1233 H6            1 RES     
   27147 H6        1342.4766 -1414.7006   446.2566 H6            1 RES     
   27148 H6        1341.5586 -1415.0900   444.7984 H6            1 RES     
   27149 H6        1343.2240 -1412.5346   445.3810 H6            1 RES     
   27150 H6        1341.4628 -1412.7156   445.4815 H6            1 RES     
   27151 H6        1343.1531 -1412.6592   442.9217 H6            1 RES     
   27152 H6        1342.0753 -1411.4144   443.5298 H6            1 RES     
   27153 H6        1341.1567 -1414.1993   442.5531 H6            1 RES     
   27154 H6        1341.0806 -1412.6601   441.6450 H6            1 RES     
   27155 H6        1339.5793 -1413.2539   444.2798 H6            1 RES     
   27156 H6        1339.5371 -1411.6969   443.3604 H6            1 RES     
   27157 H6        1338.5883 -1412.9064   441.3805 H6            1 RES     
   27158 H6        1337.5620 -1413.1155   442.8499 H6            1 RES     
   27159 H6        1338.6386 -1414.4596   442.3093 H6            1 RES     
   27160 H6        1344.7842 -1414.2120   446.1953 H6            1 RES     
   27161 H6        1345.2330 -1413.7645   444.5151 H6            1 RES     
   27162 H6        1346.0128 -1416.2591   446.2043 H6            1 RES     
   27163 H6        1346.4758 -1416.0128   444.5050 H6            1 RES     
   27164 H6        1347.6229 -1413.9034   445.0231 H6            1 RES     
   27165 H6        1347.2218 -1414.0727   446.7754 H6            1 RES     
   27166 H6        1348.6023 -1416.1624   446.9029 H6            1 RES     
   27167 H6        1348.8528 -1416.0984   445.1433 H6            1 RES     
   27168 H6        1349.9841 -1413.8184   445.3950 H6            1 RES     
   27169 H6        1349.8328 -1414.0174   447.1759 H6            1 RES     
   27170 H6        1351.2815 -1416.1003   447.0187 H6            1 RES     
   27171 H6        1352.0810 -1414.5910   446.4434 H6            1 RES     
   27172 H6        1351.5744 -1415.1885   444.0610 H6            1 RES     
   27173 H6        1350.8609 -1416.7550   444.6057 H6            1 RES     
   27174 H6        1353.1741 -1417.0585   443.8433 H6            1 RES     
   27175 H6        1353.7654 -1415.8592   445.0534 H6            1 RES     
   27176 H6        1353.0337 -1417.4241   445.6057 H6            1 RES     
   27177 C0        1345.9086 -1416.3273   441.8754 C0            1 RES     
   27178 C0        1347.1031 -1417.2530   442.2815 C0            1 RES     
   27179 C0        1348.4092 -1416.4053   442.4702 C0            1 RES     
   27180 C0        1349.1862 -1415.8430   441.2544 C0            1 RES     
   27181 C0        1348.5386 -1414.6997   440.4467 C0            1 RES     
   27182 C0        1348.1393 -1413.4483   441.2568 C0            1 RES     
   27183 C0        1349.3099 -1412.7804   441.9899 C0            1 RES     
   27184 C0        1348.8398 -1411.5244   442.7210 C0            1 RES     
   27185 C0        1347.4457 -1418.4406   441.3347 C0            1 RES     
   27186 C0        1346.4076 -1419.5492   441.2887 C0            1 RES     
   27187 C0        1346.8821 -1420.7645   440.4909 C0            1 RES     
   27188 C0        1345.8062 -1421.8556   440.5328 C0            1 RES     
   27189 C0        1346.2385 -1423.1013   439.7499 C0            1 RES     
   27190 C0        1345.2080 -1424.2407   439.8270 C0            1 RES     
   27191 C0        1343.8549 -1423.8766   439.1953 C0            1 RES     
   27192 C0        1342.8946 -1425.0605   439.2359 C0            1 RES     
   27193 H6        1346.0485 -1416.0965   440.8050 H6            1 RES     
   27194 H6        1346.0616 -1415.3587   442.3766 H6            1 RES     
   27195 H6        1346.8819 -1417.6747   443.2814 H6            1 RES     
   27196 H6        1349.1309 -1417.0786   442.9819 H6            1 RES     
   27197 H6        1348.2190 -1415.5601   443.1530 H6            1 RES     
   27198 H6        1349.4558 -1416.6688   440.5651 H6            1 RES     
   27199 H6        1350.1485 -1415.4514   441.6489 H6            1 RES     
   27200 H6        1347.6550 -1415.0743   439.9029 H6            1 RES     
   27201 H6        1349.2668 -1414.3892   439.6663 H6            1 RES     
   27202 H6        1347.3574 -1413.6941   441.9966 H6            1 RES     
   27203 H6        1347.7010 -1412.7160   440.5434 H6            1 RES     
   27204 H6        1349.7397 -1413.4760   442.7409 H6            1 RES     
   27205 H6        1350.0996 -1412.5012   441.2596 H6            1 RES     
   27206 H6        1348.4199 -1410.7913   441.9991 H6            1 RES     
   27207 H6        1349.6957 -1411.0542   443.2484 H6            1 RES     
   27208 H6        1348.0597 -1411.7820   443.4698 H6            1 RES     
   27209 H6        1348.3774 -1418.9121   441.7200 H6            1 RES     
   27210 H6        1347.6424 -1418.0730   440.3043 H6            1 RES     
   27211 H6        1346.2220 -1419.8903   442.3266 H6            1 RES     
   27212 H6        1345.4937 -1419.1601   440.8107 H6            1 RES     
   27213 H6        1347.0823 -1420.4672   439.4388 H6            1 RES     
   27214 H6        1347.8209 -1421.1610   440.9394 H6            1 RES     
   27215 H6        1345.6146 -1422.1417   441.5914 H6            1 RES     
   27216 H6        1344.8742 -1421.4385   440.0984 H6            1 RES     
   27217 H6        1346.4190 -1422.8331   438.6862 H6            1 RES     
   27218 H6        1347.1924 -1423.4775   440.1810 H6            1 RES     
   27219 H6        1345.0592 -1424.5336   440.8899 H6            1 RES     
   27220 H6        1345.6305 -1425.1134   439.2825 H6            1 RES     
   27221 H6        1344.0078 -1423.5738   438.1368 H6            1 RES     
   27222 H6        1343.3817 -1423.0373   439.7460 H6            1 RES     
   27223 H6        1341.9277 -1424.7695   438.7738 H6            1 RES     
   27224 H6        1343.3157 -1425.9186   438.6703 H6            1 RES     
   27225 H6        1342.7085 -1425.3696   440.2867 H6            1 RES     
   27226 C0        1343.7747 -1427.4412   449.6579 C0            1 RES     
   27227 C1        1343.6712 -1426.7475   448.2935 C1            1 RES     
   27228 C1        1343.4310 -1427.6087   447.2800 C1            1 RES     
   27229 S2        1343.2953 -1426.8341   445.8046 S2            1 RES     
   27230 C1        1343.5489 -1425.2969   446.4996 C1            1 RES     
   27231 C1        1343.7347 -1425.4149   447.8819 C1            1 RES     
   27232 C1        1343.3647 -1428.9187   447.8190 C1            1 RES     
   27233 C1        1343.5874 -1428.8815   449.1655 C1            1 RES     
   27234 C1        1343.5725 -1430.1528   449.7484 C1            1 RES     
   27235 C1        1343.3381 -1431.1627   448.7801 C1            1 RES     
   27236 S2        1343.1162 -1430.4542   447.2427 S2            1 RES     
   27237 H3        1343.9064 -1424.5803   448.5473 H3            1 RES     
   27238 H3        1343.7354 -1430.3186   450.8027 H3            1 RES     
   27239 N4        1342.6920 -1434.8250   448.1582 N4            1 RES     
   27240 C1        1342.6971 -1433.4683   448.0213 C1            1 RES     
   27241 C1        1343.3265 -1432.6372   448.9769 C1            1 RES     
   27242 C1        1343.9610 -1433.2724   450.0597 C1            1 RES     
   27243 N4        1344.6496 -1432.6289   451.0361 N4            1 RES     
   27244 S2        1345.1956 -1433.8753   451.9743 S2            1 RES     
   27245 N4        1344.6127 -1435.2223   451.2172 N4            1 RES     
   27246 C1        1343.9506 -1434.6925   450.1606 C1            1 RES     
   27247 C1        1343.3008 -1435.4540   449.1986 C1            1 RES     
   27248 H5        1342.1931 -1433.0425   447.1645 H5            1 RES     
   27249 C0        1342.4969 -1426.9257   450.4243 C0            1 RES     
   27250 C0        1341.8787 -1427.4494   451.7684 C0            1 RES     
   27251 C0        1340.3699 -1427.0131   451.8496 C0            1 RES     
   27252 C0        1339.9945 -1425.5417   452.1961 C0            1 RES     
   27253 C0        1340.3502 -1424.4184   451.2000 C0            1 RES     
   27254 C0        1339.8124 -1424.6031   449.7679 C0            1 RES     
   27255 C0        1338.2800 -1424.6351   449.6960 C0            1 RES     
   27256 C0        1337.8068 -1424.7622   448.2496 C0            1 RES     
   27257 C0        1342.5695 -1427.0065   453.0898 C0            1 RES     
   27258 C0        1343.7477 -1427.8665   453.5377 C0            1 RES     
   27259 C0        1344.4191 -1427.2583   454.7828 C0            1 RES     
   27260 C0        1345.6475 -1428.0668   455.2290 C0            1 RES     
   27261 C0        1346.4292 -1427.3108   456.3174 C0            1 RES     
   27262 C0        1347.7786 -1427.9601   456.6767 C0            1 RES     
   27263 C0        1348.7892 -1427.9062   455.5135 C0            1 RES     
   27264 C0        1350.1541 -1428.4471   455.9274 C0            1 RES     
   27265 H6        1342.6066 -1425.8347   450.4990 H6            1 RES     
   27266 H6        1341.6869 -1427.1362   449.6917 H6            1 RES     
   27267 H6        1341.8334 -1428.5601   451.7168 H6            1 RES     
   27268 H6        1339.9211 -1427.6175   452.6699 H6            1 RES     
   27269 H6        1339.8306 -1427.3262   450.9299 H6            1 RES     
   27270 H6        1340.4309 -1425.2731   453.1811 H6            1 RES     
   27271 H6        1338.8926 -1425.5202   452.3342 H6            1 RES     
   27272 H6        1341.4427 -1424.2738   451.1696 H6            1 RES     
   27273 H6        1339.9471 -1423.4635   451.6024 H6            1 RES     
   27274 H6        1340.2211 -1425.5259   449.3166 H6            1 RES     
   27275 H6        1340.1743 -1423.7446   449.1605 H6            1 RES     
   27276 H6        1337.8852 -1425.4998   450.2688 H6            1 RES     
   27277 H6        1337.8686 -1423.6967   450.1271 H6            1 RES     
   27278 H6        1338.1678 -1423.9015   447.6468 H6            1 RES     
   27279 H6        1336.6970 -1424.7758   448.2200 H6            1 RES     
   27280 H6        1338.1866 -1425.7052   447.8013 H6            1 RES     
   27281 H6        1341.8470 -1427.1014   453.9316 H6            1 RES     
   27282 H6        1342.8460 -1425.9324   453.0043 H6            1 RES     
   27283 H6        1343.4030 -1428.9027   453.7470 H6            1 RES     
   27284 H6        1344.4705 -1427.9041   452.7341 H6            1 RES     
   27285 H6        1344.7513 -1426.2314   454.5108 H6            1 RES     
   27286 H6        1343.6972 -1427.1839   455.6251 H6            1 RES     
   27287 H6        1345.3458 -1429.0732   455.5908 H6            1 RES     
   27288 H6        1346.2964 -1428.2148   454.3570 H6            1 RES     
   27289 H6        1346.6360 -1426.2699   455.9829 H6            1 RES     
   27290 H6        1345.7950 -1427.2561   457.2296 H6            1 RES     
   27291 H6        1347.6225 -1429.0091   457.0077 H6            1 RES     
   27292 H6        1348.2066 -1427.3849   457.5267 H6            1 RES     
   27293 H6        1348.9174 -1426.8520   455.1815 H6            1 RES     
   27294 H6        1348.4352 -1428.5113   454.6582 H6            1 RES     
   27295 H6        1350.8519 -1428.3844   455.0675 H6            1 RES     
   27296 H6        1350.5697 -1427.8487   456.7662 H6            1 RES     
   27297 H6        1350.0679 -1429.5105   456.2408 H6            1 RES     
   27298 C0        1345.1661 -1427.0083   450.2745 C0            1 RES     
   27299 C0        1346.2573 -1427.9901   450.8169 C0            1 RES     
   27300 C0        1347.1167 -1427.2898   451.9264 C0            1 RES     
   27301 C0        1348.1781 -1426.2209   451.5670 C0            1 RES     
   27302 C0        1347.6835 -1424.8511   451.0593 C0            1 RES     
   27303 C0        1346.6932 -1424.1107   451.9830 C0            1 RES     
   27304 C0        1347.2460 -1423.8200   453.3843 C0            1 RES     
   27305 C0        1346.2263 -1423.0414   454.2133 C0            1 RES     
   27306 C0        1347.2408 -1428.6131   449.7831 C0            1 RES     
   27307 C0        1346.6170 -1429.6043   448.8152 C0            1 RES     
   27308 C0        1347.6591 -1430.3164   447.9517 C0            1 RES     
   27309 C0        1346.9606 -1431.3328   447.0412 C0            1 RES     
   27310 C0        1347.9668 -1432.0795   446.1572 C0            1 RES     
   27311 C0        1347.3046 -1433.1538   445.2777 C0            1 RES     
   27312 C0        1346.3041 -1432.5744   444.2649 C0            1 RES     
   27313 C0        1345.7293 -1433.6703   443.3737 C0            1 RES     
   27314 H6        1345.6879 -1426.3153   449.5918 H6            1 RES     
   27315 H6        1344.8568 -1426.3679   451.1153 H6            1 RES     
   27316 H6        1345.7397 -1428.8233   451.3312 H6            1 RES     
   27317 H6        1347.6901 -1428.1050   452.4190 H6            1 RES     
   27318 H6        1346.4598 -1426.8493   452.6952 H6            1 RES     
   27319 H6        1348.9026 -1426.6394   450.8391 H6            1 RES     
   27320 H6        1348.7582 -1426.0282   452.4951 H6            1 RES     
   27321 H6        1347.2314 -1424.9593   450.0589 H6            1 RES     
   27322 H6        1348.5772 -1424.2047   450.9207 H6            1 RES     
   27323 H6        1345.7546 -1424.6823   452.0885 H6            1 RES     
   27324 H6        1346.4392 -1423.1452   451.4926 H6            1 RES     
   27325 H6        1347.4680 -1424.7700   453.9142 H6            1 RES     
   27326 H6        1348.1796 -1423.2228   453.3028 H6            1 RES     
   27327 H6        1345.9918 -1422.0709   453.7255 H6            1 RES     
   27328 H6        1346.6384 -1422.8411   455.2242 H6            1 RES     
   27329 H6        1345.2881 -1423.6275   454.3222 H6            1 RES     
   27330 H6        1348.0033 -1429.1864   450.3565 H6            1 RES     
   27331 H6        1347.7627 -1427.8148   449.2121 H6            1 RES     
   27332 H6        1346.0952 -1430.3821   449.4077 H6            1 RES     
   27333 H6        1345.9290 -1429.0622   448.1461 H6            1 RES     
   27334 H6        1348.2100 -1429.5710   447.3383 H6            1 RES     
   27335 H6        1348.3831 -1430.8513   448.6071 H6            1 RES     
   27336 H6        1346.4118 -1432.0709   447.6681 H6            1 RES     
   27337 H6        1346.2317 -1430.7857   446.4082 H6            1 RES     
   27338 H6        1348.5124 -1431.3553   445.5138 H6            1 RES     
   27339 H6        1348.7066 -1432.5882   446.8139 H6            1 RES     
   27340 H6        1346.7930 -1433.8991   445.9262 H6            1 RES     
   27341 H6        1348.1123 -1433.6761   444.7196 H6            1 RES     
   27342 H6        1346.8151 -1431.8223   443.6256 H6            1 RES     
   27343 H6        1345.4574 -1432.0860   444.7903 H6            1 RES     
   27344 H6        1345.0115 -1433.2240   442.6535 H6            1 RES     
   27345 H6        1346.5413 -1434.1701   442.8041 H6            1 RES     
   27346 H6        1345.1940 -1434.4253   443.9884 H6            1 RES     
   27347 C0        1342.6393 -1440.4857   451.0589 C0            1 RES     
   27348 C1        1342.9633 -1439.2526   450.2058 C1            1 RES     
   27349 C1        1343.3884 -1439.5677   448.9622 C1            1 RES     
   27350 S2        1343.7122 -1438.2130   448.0374 S2            1 RES     
   27351 C1        1343.2732 -1437.1509   449.2982 C1            1 RES     
   27352 C1        1342.8768 -1437.8768   450.4273 C1            1 RES     
   27353 C1        1343.4130 -1440.9809   448.8479 C1            1 RES     
   27354 C1        1343.0271 -1441.5516   450.0266 C1            1 RES     
   27355 C1        1343.0688 -1442.9490   449.9867 C1            1 RES     
   27356 C1        1343.5151 -1443.4169   448.7241 C1            1 RES     
   27357 S2        1343.8055 -1442.0951   447.6833 S2            1 RES     
   27358 H3        1342.5460 -1437.4297   451.3543 H3            1 RES     
   27359 H3        1342.8029 -1443.5698   450.8290 H3            1 RES     
   27360 N4        1344.0852 -1446.4159   446.5109 N4            1 RES     
   27361 C1        1343.8253 -1445.1442   446.9288 C1            1 RES     
   27362 C1        1343.7719 -1444.8209   448.3046 C1            1 RES     
   27363 C1        1344.0174 -1445.8624   449.2175 C1            1 RES     
   27364 N4        1344.0516 -1445.7145   450.5660 N4            1 RES     
   27365 S2        1344.4266 -1447.2376   451.0870 S2            1 RES     
   27366 N4        1344.5589 -1448.1095   449.6908 N4            1 RES     
   27367 C1        1344.3031 -1447.1745   448.7443 C1            1 RES     
   27368 C1        1344.3248 -1447.4333   447.3805 C1            1 RES     
   27369 H5        1343.6475 -1444.3885   446.1759 H5            1 RES     
   27370 C0        1341.0751 -1440.4018   451.2378 C0            1 RES     
   27371 C0        1340.0888 -1441.4907   451.7898 C0            1 RES     
   27372 C0        1338.6325 -1441.1728   451.2883 C0            1 RES     
   27373 C0        1337.8077 -1440.0262   451.9447 C0            1 RES     
   27374 C0        1338.2744 -1438.5661   451.7690 C0            1 RES     
   27375 C0        1338.4564 -1438.0954   450.3132 C0            1 RES     
   27376 C0        1337.1558 -1438.1264   449.4997 C0            1 RES     
   27377 C0        1337.3867 -1437.5965   448.0862 C0            1 RES     
   27378 C0        1340.0261 -1441.6775   453.3327 C0            1 RES     
   27379 C0        1341.0696 -1442.6200   453.9252 C0            1 RES     
   27380 C0        1340.9831 -1442.6254   455.4626 C0            1 RES     
   27381 C0        1342.0590 -1443.5199   456.0980 C0            1 RES     
   27382 C0        1342.1001 -1443.3203   457.6231 C0            1 RES     
   27383 C0        1343.2808 -1444.0309   458.3105 C0            1 RES     
   27384 C0        1344.6448 -1443.4337   457.9101 C0            1 RES     
   27385 C0        1345.7900 -1444.0721   458.6896 C0            1 RES     
   27386 H6        1340.8799 -1439.4603   451.7701 H6            1 RES     
   27387 H6        1340.7285 -1440.2767   450.1883 H6            1 RES     
   27388 H6        1340.3352 -1442.4587   451.2993 H6            1 RES     
   27389 H6        1338.0358 -1442.0929   451.4807 H6            1 RES     
   27390 H6        1338.6262 -1441.0484   450.1842 H6            1 RES     
   27391 H6        1337.7070 -1440.2222   453.0329 H6            1 RES     
   27392 H6        1336.7813 -1440.0946   451.5258 H6            1 RES     
   27393 H6        1339.2074 -1438.3984   452.3320 H6            1 RES     
   27394 H6        1337.5244 -1437.9058   452.2568 H6            1 RES     
   27395 H6        1339.2244 -1438.7048   449.8022 H6            1 RES     
   27396 H6        1338.8264 -1437.0470   450.3435 H6            1 RES     
   27397 H6        1336.7732 -1439.1654   449.4239 H6            1 RES     
   27398 H6        1336.3903 -1437.4941   449.9995 H6            1 RES     
   27399 H6        1337.7534 -1436.5482   448.1204 H6            1 RES     
   27400 H6        1336.4329 -1437.6205   447.5183 H6            1 RES     
   27401 H6        1338.1329 -1438.2259   447.5557 H6            1 RES     
   27402 H6        1339.0600 -1442.1593   453.6053 H6            1 RES     
   27403 H6        1340.0486 -1440.6749   453.8139 H6            1 RES     
   27404 H6        1340.9260 -1443.6464   453.5226 H6            1 RES     
   27405 H6        1342.0512 -1442.2736   453.6317 H6            1 RES     
   27406 H6        1341.1447 -1441.5792   455.8064 H6            1 RES     
   27407 H6        1339.9770 -1442.9564   455.8011 H6            1 RES     
   27408 H6        1341.8810 -1444.5879   455.8474 H6            1 RES     
   27409 H6        1343.0313 -1443.2428   455.6724 H6            1 RES     
   27410 H6        1342.1754 -1442.2361   457.8623 H6            1 RES     
   27411 H6        1341.1458 -1443.6984   458.0514 H6            1 RES     
   27412 H6        1343.2532 -1445.1194   458.0900 H6            1 RES     
   27413 H6        1343.1571 -1443.8926   459.4069 H6            1 RES     
   27414 H6        1344.6472 -1442.3407   458.1182 H6            1 RES     
   27415 H6        1344.8424 -1443.5946   456.8339 H6            1 RES     
   27416 H6        1346.7498 -1443.6113   458.3785 H6            1 RES     
   27417 H6        1345.6547 -1443.9083   459.7802 H6            1 RES     
   27418 H6        1345.8344 -1445.1638   458.4838 H6            1 RES     
   27419 C0        1343.4902 -1440.3468   452.3857 C0            1 RES     
   27420 C0        1344.4467 -1441.4425   452.9632 C0            1 RES     
   27421 C0        1344.5600 -1441.3003   454.5210 C0            1 RES     
   27422 C0        1345.3858 -1440.1604   455.1669 C0            1 RES     
   27423 C0        1344.8436 -1438.7208   455.0562 C0            1 RES     
   27424 C0        1343.4104 -1438.5009   455.5847 C0            1 RES     
   27425 C0        1343.2292 -1438.8628   457.0646 C0            1 RES     
   27426 C0        1341.8014 -1438.5667   457.5193 C0            1 RES     
   27427 C0        1345.8929 -1441.5081   452.3902 C0            1 RES     
   27428 C0        1345.9944 -1441.9685   450.9458 C0            1 RES     
   27429 C0        1347.4407 -1442.1892   450.5005 C0            1 RES     
   27430 C0        1347.4586 -1442.6996   449.0552 C0            1 RES     
   27431 C0        1348.8904 -1442.9427   448.5630 C0            1 RES     
   27432 C0        1348.9406 -1443.5180   447.1373 C0            1 RES     
   27433 C0        1348.3589 -1442.5662   446.0799 C0            1 RES     
   27434 C0        1348.4955 -1443.1535   444.6792 C0            1 RES     
   27435 H6        1344.0712 -1439.4083   452.3709 H6            1 RES     
   27436 H6        1342.7108 -1440.1630   453.1417 H6            1 RES     
   27437 H6        1343.9742 -1442.4298   452.7939 H6            1 RES     
   27438 H6        1345.0455 -1442.2368   454.8720 H6            1 RES     
   27439 H6        1343.5550 -1441.2701   454.9745 H6            1 RES     
   27440 H6        1346.4272 -1440.1879   454.7868 H6            1 RES     
   27441 H6        1345.4528 -1440.3951   456.2511 H6            1 RES     
   27442 H6        1344.8991 -1438.3752   454.0100 H6            1 RES     
   27443 H6        1345.5296 -1438.0614   455.6309 H6            1 RES     
   27444 H6        1342.6814 -1439.0797   454.9909 H6            1 RES     
   27445 H6        1343.1671 -1437.4241   455.4486 H6            1 RES     
   27446 H6        1343.4240 -1439.9444   457.2220 H6            1 RES     
   27447 H6        1343.9375 -1438.2721   457.6845 H6            1 RES     
   27448 H6        1341.5729 -1437.4862   457.3967 H6            1 RES     
   27449 H6        1341.6846 -1438.8359   458.5897 H6            1 RES     
   27450 H6        1341.0748 -1439.1600   456.9228 H6            1 RES     
   27451 H6        1346.4519 -1442.2611   452.9896 H6            1 RES     
   27452 H6        1346.4016 -1440.5262   452.5036 H6            1 RES     
   27453 H6        1345.4719 -1442.9417   450.8572 H6            1 RES     
   27454 H6        1345.5485 -1441.1982   450.2955 H6            1 RES     
   27455 H6        1348.0052 -1441.2346   450.5744 H6            1 RES     
   27456 H6        1347.9221 -1442.9459   451.1603 H6            1 RES     
   27457 H6        1346.8884 -1443.6537   448.9958 H6            1 RES     
   27458 H6        1346.9605 -1441.9422   448.4152 H6            1 RES     
   27459 H6        1349.4681 -1441.9935   448.6026 H6            1 RES     
   27460 H6        1349.3788 -1443.6763   449.2417 H6            1 RES     
   27461 H6        1348.3955 -1444.4874   447.1102 H6            1 RES     
   27462 H6        1350.0074 -1443.7129   446.8908 H6            1 RES     
   27463 H6        1348.8980 -1441.5949   446.1166 H6            1 RES     
   27464 H6        1347.2800 -1442.3876   446.2687 H6            1 RES     
   27465 H6        1348.0681 -1442.4462   443.9374 H6            1 RES     
   27466 H6        1349.5655 -1443.3229   444.4344 H6            1 RES     
   27467 H6        1347.9464 -1444.1168   444.6102 H6            1 RES     
   27468 C0        1344.1531 -1452.7760   446.5791 C0            1 RES     
   27469 C1        1344.5052 -1451.2833   446.5426 C1            1 RES     
   27470 C1        1345.4795 -1450.9922   445.6523 C1            1 RES     
   27471 S2        1345.8330 -1449.3587   445.6064 S2            1 RES     
   27472 C1        1344.6618 -1448.9919   446.7913 C1            1 RES     
   27473 C1        1344.0086 -1450.1588   447.2045 C1            1 RES     
   27474 C1        1345.8854 -1452.2000   445.0300 C1            1 RES     
   27475 C1        1345.1835 -1453.2507   445.5472 C1            1 RES     
   27476 C1        1345.5690 -1454.4777   444.9976 C1            1 RES     
   27477 C1        1346.6062 -1454.3137   444.0438 C1            1 RES     
   27478 S2        1346.9876 -1452.6579   443.8780 S2            1 RES     
   27479 H3        1343.2197 -1450.1869   447.9432 H3            1 RES     
   27480 H3        1345.1267 -1455.4182   445.2898 H3            1 RES     
   27481 N4        1348.7566 -1455.9739   441.4291 N4            1 RES     
   27482 C1        1348.0499 -1455.0349   442.1207 C1            1 RES     
   27483 C1        1347.3423 -1455.3700   443.2985 C1            1 RES     
   27484 C1        1347.4168 -1456.7059   443.7326 C1            1 RES     
   27485 N4        1346.8390 -1457.1830   444.8639 N4            1 RES     
   27486 S2        1347.3074 -1458.7680   444.8679 S2            1 RES     
   27487 N4        1348.2230 -1458.9111   443.5010 N4            1 RES     
   27488 C1        1348.1791 -1457.6553   442.9946 C1            1 RES     
   27489 C1        1348.8386 -1457.2688   441.8356 C1            1 RES     
   27490 H5        1348.0346 -1454.0248   441.7349 H5            1 RES     
   27491 C0        1342.6906 -1452.8178   445.9915 C0            1 RES     
   27492 C0        1341.8534 -1454.0608   445.5255 C0            1 RES     
   27493 C0        1340.7185 -1453.5839   444.5469 C0            1 RES     
   27494 C0        1339.4467 -1452.8771   445.1027 C0            1 RES     
   27495 C0        1339.5819 -1451.4851   445.7545 C0            1 RES     
   27496 C0        1340.2472 -1450.4030   444.8824 C0            1 RES     
   27497 C0        1339.4636 -1450.0925   443.6002 C0            1 RES     
   27498 C0        1340.1395 -1448.9755   442.8079 C0            1 RES     
   27499 C0        1341.1880 -1454.9265   446.6333 C0            1 RES     
   27500 C0        1342.0721 -1456.0110   447.2421 C0            1 RES     
   27501 C0        1341.3451 -1456.7130   448.4038 C0            1 RES     
   27502 C0        1342.2279 -1457.7733   449.0805 C0            1 RES     
   27503 C0        1341.5689 -1458.2840   450.3736 C0            1 RES     
   27504 C0        1342.4775 -1459.2014   451.2128 C0            1 RES     
   27505 C0        1343.6971 -1458.4568   451.7918 C0            1 RES     
   27506 C0        1344.5185 -1459.3523   452.7139 C0            1 RES     
   27507 H6        1342.0703 -1452.2235   446.6770 H6            1 RES     
   27508 H6        1342.8037 -1452.2396   445.0481 H6            1 RES     
   27509 H6        1342.5069 -1454.6965   444.8875 H6            1 RES     
   27510 H6        1340.3342 -1454.5048   444.0532 H6            1 RES     
   27511 H6        1341.1522 -1452.9738   443.7257 H6            1 RES     
   27512 H6        1338.9432 -1453.5462   445.8319 H6            1 RES     
   27513 H6        1338.7441 -1452.7721   444.2489 H6            1 RES     
   27514 H6        1340.1182 -1451.5689   446.7141 H6            1 RES     
   27515 H6        1338.5626 -1451.1341   446.0270 H6            1 RES     
   27516 H6        1341.2799 -1450.6978   444.6200 H6            1 RES     
   27517 H6        1340.3083 -1449.4735   445.4900 H6            1 RES     
   27518 H6        1339.4085 -1450.9933   442.9544 H6            1 RES     
   27519 H6        1338.4323 -1449.7722   443.8638 H6            1 RES     
   27520 H6        1340.1961 -1448.0480   443.4169 H6            1 RES     
   27521 H6        1339.5530 -1448.7620   441.8896 H6            1 RES     
   27522 H6        1341.1662 -1449.2798   442.5119 H6            1 RES     
   27523 H6        1340.3427 -1455.5014   446.1919 H6            1 RES     
   27524 H6        1340.7650 -1454.2496   447.4081 H6            1 RES     
   27525 H6        1342.3615 -1456.7473   446.4609 H6            1 RES     
   27526 H6        1342.9719 -1455.5469   447.6224 H6            1 RES     
   27527 H6        1341.0916 -1455.9319   449.1552 H6            1 RES     
   27528 H6        1340.4011 -1457.1841   448.0528 H6            1 RES     
   27529 H6        1342.4326 -1458.6162   448.3857 H6            1 RES     
   27530 H6        1343.1922 -1457.3116   449.3259 H6            1 RES     
   27531 H6        1341.2755 -1457.4238   451.0157 H6            1 RES     
   27532 H6        1340.6432 -1458.8366   450.1001 H6            1 RES     
   27533 H6        1342.8057 -1460.0729   450.6070 H6            1 RES     
   27534 H6        1341.8711 -1459.5768   452.0660 H6            1 RES     
   27535 H6        1343.3511 -1457.5763   452.3774 H6            1 RES     
   27536 H6        1344.3649 -1458.1091   450.9817 H6            1 RES     
   27537 H6        1345.3796 -1458.7789   453.1138 H6            1 RES     
   27538 H6        1343.8983 -1459.7026   453.5666 H6            1 RES     
   27539 H6        1344.9042 -1460.2317   452.1533 H6            1 RES     
   27540 C0        1344.3002 -1453.2327   448.0870 C0            1 RES     
   27541 C0        1345.1510 -1454.4490   448.5825 C0            1 RES     
   27542 C0        1344.5549 -1455.0240   449.9144 C0            1 RES     
   27543 C0        1344.7312 -1454.2809   451.2617 C0            1 RES     
   27544 C0        1343.9623 -1452.9596   451.4660 C0            1 RES     
   27545 C0        1342.4336 -1453.0353   451.2687 C0            1 RES     
   27546 C0        1341.7330 -1454.0312   452.2021 C0            1 RES     
   27547 C0        1340.2221 -1454.0055   451.9789 C0            1 RES     
   27548 C0        1346.6734 -1454.2153   448.8107 C0            1 RES     
   27549 C0        1347.4847 -1453.9703   447.5496 C0            1 RES     
   27550 C0        1348.9897 -1453.9328   447.8183 C0            1 RES     
   27551 C0        1349.7403 -1453.7338   446.4966 C0            1 RES     
   27552 C0        1351.2580 -1453.6954   446.7127 C0            1 RES     
   27553 C0        1352.0439 -1453.5624   445.3971 C0            1 RES     
   27554 C0        1351.7583 -1452.2489   444.6517 C0            1 RES     
   27555 C0        1352.6119 -1452.1361   443.3931 C0            1 RES     
   27556 H6        1344.5910 -1452.3760   448.7194 H6            1 RES     
   27557 H6        1343.2546 -1453.4285   448.3720 H6            1 RES     
   27558 H6        1345.0448 -1455.2635   447.8396 H6            1 RES     
   27559 H6        1345.0526 -1456.0066   450.0647 H6            1 RES     
   27560 H6        1343.4771 -1455.2251   449.7932 H6            1 RES     
   27561 H6        1345.8089 -1454.1097   451.4591 H6            1 RES     
   27562 H6        1344.3851 -1454.9788   452.0542 H6            1 RES     
   27563 H6        1344.3728 -1452.1771   450.8056 H6            1 RES     
   27564 H6        1344.1609 -1452.6159   452.5044 H6            1 RES     
   27565 H6        1342.1863 -1453.2994   450.2257 H6            1 RES     
   27566 H6        1342.0228 -1452.0192   451.4588 H6            1 RES     
   27567 H6        1342.0934 -1455.0623   452.0035 H6            1 RES     
   27568 H6        1341.9482 -1453.7688   453.2602 H6            1 RES     
   27569 H6        1339.8178 -1452.9918   452.1880 H6            1 RES     
   27570 H6        1339.7297 -1454.7322   452.6580 H6            1 RES     
   27571 H6        1339.9816 -1454.2813   450.9293 H6            1 RES     
   27572 H6        1347.0862 -1455.1450   449.2624 H6            1 RES     
   27573 H6        1346.8363 -1453.3795   449.5252 H6            1 RES     
   27574 H6        1347.2972 -1454.8100   446.8511 H6            1 RES     
   27575 H6        1347.1882 -1452.9996   447.1197 H6            1 RES     
   27576 H6        1349.2247 -1453.1021   448.5185 H6            1 RES     
   27577 H6        1349.3100 -1454.8948   448.2782 H6            1 RES     
   27578 H6        1349.4942 -1454.5707   445.8052 H6            1 RES     
   27579 H6        1349.3969 -1452.7805   446.0443 H6            1 RES     
   27580 H6        1351.5202 -1452.8538   447.3903 H6            1 RES     
   27581 H6        1351.5709 -1454.6452   447.1998 H6            1 RES     
   27582 H6        1351.8095 -1454.4270   444.7373 H6            1 RES     
   27583 H6        1353.1268 -1453.6004   445.6471 H6            1 RES     
   27584 H6        1351.9828 -1451.3872   445.3169 H6            1 RES     
   27585 H6        1350.6932 -1452.1997   444.3443 H6            1 RES     
   27586 H6        1352.3854 -1451.1798   442.8761 H6            1 RES     
   27587 H6        1353.6910 -1452.1520   443.6559 H6            1 RES     
   27588 H6        1352.3905 -1452.9764   442.7009 H6            1 RES     
   27589 C0        1350.2987 -1461.6741   439.0647 C0            1 RES     
   27590 C1        1350.2671 -1460.3186   439.7824 C1            1 RES     
   27591 C1        1351.4270 -1459.6342   439.6698 C1            1 RES     
   27592 S2        1351.3671 -1458.1489   440.4350 S2            1 RES     
   27593 C1        1349.7536 -1458.3844   440.9366 C1            1 RES     
   27594 C1        1349.2849 -1459.6266   440.4936 C1            1 RES     
   27595 C1        1352.3329 -1460.4205   438.9135 C1            1 RES     
   27596 C1        1351.7499 -1461.6071   438.5731 C1            1 RES     
   27597 C1        1352.6117 -1462.4438   437.8565 C1            1 RES     
   27598 C1        1353.8837 -1461.8426   437.6756 C1            1 RES     
   27599 S2        1353.8938 -1460.2826   438.3690 S2            1 RES     
   27600 H3        1348.2888 -1460.0037   440.6788 H3            1 RES     
   27601 H3        1352.3247 -1463.4246   437.5083 H3            1 RES     
   27602 N4        1357.2671 -1462.0914   436.0301 N4            1 RES     
   27603 C1        1356.1329 -1461.5831   436.5910 C1            1 RES     
   27604 C1        1355.0943 -1462.4306   437.0417 C1            1 RES     
   27605 C1        1355.2927 -1463.8163   436.9036 C1            1 RES     
   27606 N4        1354.4209 -1464.7665   437.3264 N4            1 RES     
   27607 S2        1355.2052 -1466.1709   436.9463 S2            1 RES     
   27608 N4        1356.6195 -1465.6594   436.2640 N4            1 RES     
   27609 C1        1356.4976 -1464.3117   436.3294 C1            1 RES     
   27610 C1        1357.4740 -1463.4280   435.8898 C1            1 RES     
   27611 H5        1356.0433 -1460.5084   436.6702 H5            1 RES     
   27612 C0        1349.2805 -1461.4790   437.8769 C0            1 RES     
   27613 C0        1349.0423 -1462.3956   436.6255 C0            1 RES     
   27614 C0        1348.3529 -1461.5538   435.4900 C0            1 RES     
   27615 C0        1346.8378 -1461.2040   435.5802 C0            1 RES     
   27616 C0        1346.3484 -1460.2545   436.6936 C0            1 RES     
   27617 C0        1347.0427 -1458.8801   436.7498 C0            1 RES     
   27618 C0        1346.8287 -1458.0414   435.4829 C0            1 RES     
   27619 C0        1347.4900 -1456.6717   435.6204 C0            1 RES     
   27620 C0        1348.1964 -1463.6837   436.8373 C0            1 RES     
   27621 C0        1348.9682 -1464.9057   437.3266 C0            1 RES     
   27622 C0        1348.0066 -1466.0736   437.6140 C0            1 RES     
   27623 C0        1348.7426 -1467.3048   438.1652 C0            1 RES     
   27624 C0        1347.7392 -1468.3599   438.6625 C0            1 RES     
   27625 C0        1348.3948 -1469.5367   439.4088 C0            1 RES     
   27626 C0        1349.0376 -1469.1068   440.7426 C0            1 RES     
   27627 C0        1349.5765 -1470.3034   441.5200 C0            1 RES     
   27628 H6        1348.3062 -1461.2732   438.3421 H6            1 RES     
   27629 H6        1349.6423 -1460.5342   437.4146 H6            1 RES     
   27630 H6        1350.0352 -1462.6590   436.1976 H6            1 RES     
   27631 H6        1348.4456 -1462.1605   434.5610 H6            1 RES     
   27632 H6        1348.9354 -1460.6286   435.2917 H6            1 RES     
   27633 H6        1346.2475 -1462.1418   435.6496 H6            1 RES     
   27634 H6        1346.5615 -1460.7403   434.6095 H6            1 RES     
   27635 H6        1346.4294 -1460.7509   437.6746 H6            1 RES     
   27636 H6        1345.2588 -1460.0880   436.5472 H6            1 RES     
   27637 H6        1348.1263 -1459.0007   436.9323 H6            1 RES     
   27638 H6        1346.6172 -1458.3247   437.6144 H6            1 RES     
   27639 H6        1347.2688 -1458.5538   434.6025 H6            1 RES     
   27640 H6        1345.7396 -1457.8985   435.3120 H6            1 RES     
   27641 H6        1347.0605 -1456.1188   436.4831 H6            1 RES     
   27642 H6        1347.3167 -1456.0794   434.6974 H6            1 RES     
   27643 H6        1348.5850 -1456.7857   435.7700 H6            1 RES     
   27644 H6        1347.7820 -1464.0160   435.8587 H6            1 RES     
   27645 H6        1347.3371 -1463.4402   437.5004 H6            1 RES     
   27646 H6        1349.7276 -1465.2024   436.5707 H6            1 RES     
   27647 H6        1349.4825 -1464.6434   438.2411 H6            1 RES     
   27648 H6        1347.2805 -1465.7227   438.3812 H6            1 RES     
   27649 H6        1347.4429 -1466.3565   436.6983 H6            1 RES     
   27650 H6        1349.4168 -1467.7375   437.3949 H6            1 RES     
   27651 H6        1349.3711 -1466.9821   439.0043 H6            1 RES     
   27652 H6        1347.0058 -1467.8900   439.3549 H6            1 RES     
   27653 H6        1347.1780 -1468.7501   437.7850 H6            1 RES     
   27654 H6        1349.1459 -1470.0323   438.7572 H6            1 RES     
   27655 H6        1347.5920 -1470.2710   439.6386 H6            1 RES     
   27656 H6        1348.2773 -1468.5944   441.3731 H6            1 RES     
   27657 H6        1349.8822 -1468.4152   440.5657 H6            1 RES     
   27658 H6        1350.0227 -1469.9534   442.4732 H6            1 RES     
   27659 H6        1348.7559 -1471.0155   441.7525 H6            1 RES     
   27660 H6        1350.3605 -1470.8252   440.9288 H6            1 RES     
   27661 C0        1349.8956 -1462.7597   440.1429 C0            1 RES     
   27662 C0        1350.7177 -1464.0488   440.4764 C0            1 RES     
   27663 C0        1349.7681 -1465.1774   441.0098 C0            1 RES     
   27664 C0        1349.1734 -1465.1201   442.4386 C0            1 RES     
   27665 C0        1348.1009 -1464.0519   442.7345 C0            1 RES     
   27666 C0        1346.8671 -1464.0651   441.8075 C0            1 RES     
   27667 C0        1346.0955 -1465.3911   441.8153 C0            1 RES     
   27668 C0        1344.8642 -1465.3018   440.9159 C0            1 RES     
   27669 C0        1351.8952 -1463.9089   441.4854 C0            1 RES     
   27670 C0        1353.0812 -1463.1017   440.9849 C0            1 RES     
   27671 C0        1354.2731 -1463.1554   441.9416 C0            1 RES     
   27672 C0        1355.4427 -1462.3632   441.3463 C0            1 RES     
   27673 C0        1356.6677 -1462.3920   442.2683 C0            1 RES     
   27674 C0        1357.8812 -1461.6606   441.6695 C0            1 RES     
   27675 C0        1357.6360 -1460.1589   441.4522 C0            1 RES     
   27676 C0        1358.8893 -1459.4696   440.9233 C0            1 RES     
   27677 H6        1349.6776 -1462.2752   441.1104 H6            1 RES     
   27678 H6        1348.9077 -1463.0871   439.7828 H6            1 RES     
   27679 H6        1351.1338 -1464.4416   439.5282 H6            1 RES     
   27680 H6        1350.3726 -1466.1102   440.9910 H6            1 RES     
   27681 H6        1348.9257 -1465.3266   440.3134 H6            1 RES     
   27682 H6        1349.9905 -1465.0321   443.1832 H6            1 RES     
   27683 H6        1348.7006 -1466.1087   442.6232 H6            1 RES     
   27684 H6        1348.5540 -1463.0463   442.7175 H6            1 RES     
   27685 H6        1347.7519 -1464.2105   443.7779 H6            1 RES     
   27686 H6        1347.1567 -1463.8346   440.7674 H6            1 RES     
   27687 H6        1346.1861 -1463.2544   442.1485 H6            1 RES     
   27688 H6        1346.7398 -1466.2125   441.4373 H6            1 RES     
   27689 H6        1345.7719 -1465.6307   442.8511 H6            1 RES     
   27690 H6        1344.1812 -1464.5018   441.2740 H6            1 RES     
   27691 H6        1344.3183 -1466.2680   440.9292 H6            1 RES     
   27692 H6        1345.1653 -1465.0786   439.8694 H6            1 RES     
   27693 H6        1352.2851 -1464.9327   441.6820 H6            1 RES     
   27694 H6        1351.5355 -1463.4831   442.4471 H6            1 RES     
   27695 H6        1353.4135 -1463.5388   440.0223 H6            1 RES     
   27696 H6        1352.7740 -1462.0486   440.8776 H6            1 RES     
   27697 H6        1353.9837 -1462.7260   442.9251 H6            1 RES     
   27698 H6        1354.5863 -1464.2138   442.0873 H6            1 RES     
   27699 H6        1355.7201 -1462.8023   440.3618 H6            1 RES     
   27700 H6        1355.1080 -1461.3165   441.1920 H6            1 RES     
   27701 H6        1356.4091 -1461.9421   443.2516 H6            1 RES     
   27702 H6        1356.9601 -1463.4520   442.4364 H6            1 RES     
   27703 H6        1358.1621 -1462.1384   440.7049 H6            1 RES     
   27704 H6        1358.7302 -1461.7828   442.3773 H6            1 RES     
   27705 H6        1357.3449 -1459.6862   442.4152 H6            1 RES     
   27706 H6        1356.8242 -1460.0003   440.7124 H6            1 RES     
   27707 H6        1358.6836 -1458.3884   440.7763 H6            1 RES     
   27708 H6        1359.7242 -1459.5781   441.6478 H6            1 RES     
   27709 H6        1359.1894 -1459.9109   439.9489 H6            1 RES     
   27710 C0        1360.9731 -1466.0695   432.7283 C0            1 RES     
   27711 C1        1360.3185 -1465.1862   433.7982 C1            1 RES     
   27712 C1        1361.2171 -1464.4986   434.5374 C1            1 RES     
   27713 S2        1360.4868 -1463.5216   435.6809 S2            1 RES     
   27714 C1        1358.9202 -1463.9952   435.1994 C1            1 RES     
   27715 C1        1358.9940 -1464.9132   434.1454 C1            1 RES     
   27716 C1        1362.5165 -1464.8369   434.0814 C1            1 RES     
   27717 C1        1362.4337 -1465.7543   433.0738 C1            1 RES     
   27718 C1        1363.6896 -1466.1567   432.6081 C1            1 RES     
   27719 C1        1364.7349 -1465.5098   433.3162 C1            1 RES     
   27720 S2        1364.0785 -1464.4322   434.4661 S2            1 RES     
   27721 H3        1358.1348 -1465.3559   433.6612 H3            1 RES     
   27722 H3        1363.8199 -1466.8803   431.8175 H3            1 RES     
   27723 N4        1368.4485 -1464.9103   433.5740 N4            1 RES     
   27724 C1        1367.0987 -1464.7366   433.6585 C1            1 RES     
   27725 C1        1366.2014 -1465.7198   433.1807 C1            1 RES     
   27726 C1        1366.7627 -1466.8883   432.6348 C1            1 RES     
   27727 N4        1366.0474 -1467.9466   432.1765 N4            1 RES     
   27728 S2        1367.2278 -1469.0090   431.7184 S2            1 RES     
   27729 N4        1368.6315 -1468.2122   432.0677 N4            1 RES     
   27730 C1        1368.1769 -1467.0429   432.5791 C1            1 RES     
   27731 C1        1369.0065 -1466.0339   433.0494 C1            1 RES     
   27732 H5        1366.7313 -1463.8162   434.0913 H5            1 RES     
   27733 C0        1360.5414 -1465.3817   431.3768 C0            1 RES     
   27734 C0        1361.0825 -1465.6385   429.9262 C0            1 RES     
   27735 C0        1360.7622 -1464.3902   429.0249 C0            1 RES     
   27736 C0        1359.3171 -1464.1537   428.4942 C0            1 RES     
   27737 C0        1358.1911 -1463.8217   429.4955 C0            1 RES     
   27738 C0        1358.4471 -1462.6059   430.4067 C0            1 RES     
   27739 C0        1358.5987 -1461.2900   429.6322 C0            1 RES     
   27740 C0        1358.7925 -1460.1159   430.5892 C0            1 RES     
   27741 C0        1360.5597 -1466.9021   429.1849 C0            1 RES     
   27742 C0        1361.3166 -1468.1953   429.4729 C0            1 RES     
   27743 C0        1360.6322 -1469.3885   428.7809 C0            1 RES     
   27744 C0        1361.3338 -1470.7188   429.0965 C0            1 RES     
   27745 C0        1360.4969 -1471.9073   428.5923 C0            1 RES     
   27746 C0        1361.0325 -1473.2791   429.0428 C0            1 RES     
   27747 C0        1360.9255 -1473.4842   430.5672 C0            1 RES     
   27748 C0        1361.3508 -1474.8904   430.9777 C0            1 RES     
   27749 H6        1359.4438 -1465.4308   431.3476 H6            1 RES     
   27750 H6        1360.8292 -1464.3220   431.5542 H6            1 RES     
   27751 H6        1362.1942 -1465.6572   429.9717 H6            1 RES     
   27752 H6        1361.3818 -1464.5089   428.1075 H6            1 RES     
   27753 H6        1361.1353 -1463.4623   429.5091 H6            1 RES     
   27754 H6        1358.9948 -1465.0347   427.9002 H6            1 RES     
   27755 H6        1359.3776 -1463.3076   427.7771 H6            1 RES     
   27756 H6        1357.9634 -1464.7061   430.1131 H6            1 RES     
   27757 H6        1357.2618 -1463.6320   428.9153 H6            1 RES     
   27758 H6        1359.3450 -1462.7712   431.0301 H6            1 RES     
   27759 H6        1357.5763 -1462.5114   431.0921 H6            1 RES     
   27760 H6        1359.4788 -1461.3387   428.9580 H6            1 RES     
   27761 H6        1357.6858 -1461.1102   429.0239 H6            1 RES     
   27762 H6        1357.9196 -1460.0228   431.2703 H6            1 RES     
   27763 H6        1358.8923 -1459.1743   430.0093 H6            1 RES     
   27764 H6        1359.7128 -1460.2602   431.1949 H6            1 RES     
   27765 H6        1360.6921 -1466.7653   428.0878 H6            1 RES     
   27766 H6        1359.4695 -1467.0044   429.3812 H6            1 RES     
   27767 H6        1362.3716 -1468.1007   429.1348 H6            1 RES     
   27768 H6        1361.3154 -1468.3632   430.5413 H6            1 RES     
   27769 H6        1359.5887 -1469.4392   429.1650 H6            1 RES     
   27770 H6        1360.5957 -1469.2396   427.6797 H6            1 RES     
   27771 H6        1362.3526 -1470.7409   428.6532 H6            1 RES     
   27772 H6        1361.4499 -1470.7962   430.1845 H6            1 RES     
   27773 H6        1359.4505 -1471.8182   428.9601 H6            1 RES     
   27774 H6        1360.4718 -1471.8713   427.4809 H6            1 RES     
   27775 H6        1362.0831 -1473.4092   428.7058 H6            1 RES     
   27776 H6        1360.4081 -1474.0561   428.5499 H6            1 RES     
   27777 H6        1359.8719 -1473.3298   430.8897 H6            1 RES     
   27778 H6        1361.5742 -1472.7683   431.1055 H6            1 RES     
   27779 H6        1361.2527 -1474.9992   432.0771 H6            1 RES     
   27780 H6        1360.7044 -1475.6492   430.4869 H6            1 RES     
   27781 H6        1362.4107 -1475.0704   430.6939 H6            1 RES     
   27782 C0        1360.4212 -1467.5342   432.9597 C0            1 RES     
   27783 C0        1361.3041 -1468.8157   433.1241 C0            1 RES     
   27784 C0        1360.5163 -1470.0848   432.6460 C0            1 RES     
   27785 C0        1359.3766 -1470.6934   433.4999 C0            1 RES     
   27786 C0        1358.0601 -1469.8993   433.6223 C0            1 RES     
   27787 C0        1357.3788 -1469.5200   432.2905 C0            1 RES     
   27788 C0        1357.0166 -1470.7235   431.4105 C0            1 RES     
   27789 C0        1356.3015 -1470.2652   430.1410 C0            1 RES     
   27790 C0        1361.8713 -1469.1203   434.5418 C0            1 RES     
   27791 C0        1362.9281 -1468.1472   435.0367 C0            1 RES     
   27792 C0        1363.5759 -1468.6004   436.3457 C0            1 RES     
   27793 C0        1364.6622 -1467.5982   436.7525 C0            1 RES     
   27794 C0        1365.3478 -1468.0129   438.0600 C0            1 RES     
   27795 C0        1366.4884 -1467.0623   438.4620 C0            1 RES     
   27796 C0        1366.0095 -1465.6307   438.7511 C0            1 RES     
   27797 C0        1367.1651 -1464.7483   439.2110 C0            1 RES     
   27798 H6        1359.7047 -1467.5447   433.7994 H6            1 RES     
   27799 H6        1359.7887 -1467.6859   432.0710 H6            1 RES     
   27800 H6        1362.1637 -1468.7276   432.4312 H6            1 RES     
   27801 H6        1361.2742 -1470.8942   432.5656 H6            1 RES     
   27802 H6        1360.1115 -1469.9222   431.6329 H6            1 RES     
   27803 H6        1359.7534 -1470.9330   434.5150 H6            1 RES     
   27804 H6        1359.1201 -1471.6691   433.0338 H6            1 RES     
   27805 H6        1358.2241 -1468.9846   434.2167 H6            1 RES     
   27806 H6        1357.3499 -1470.5205   434.2100 H6            1 RES     
   27807 H6        1358.0187 -1468.8376   431.7041 H6            1 RES     
   27808 H6        1356.4464 -1468.9669   432.5394 H6            1 RES     
   27809 H6        1357.9352 -1471.2702   431.1107 H6            1 RES     
   27810 H6        1356.3511 -1471.4129   431.9734 H6            1 RES     
   27811 H6        1355.3626 -1469.7294   430.3983 H6            1 RES     
   27812 H6        1356.0487 -1471.1452   429.5138 H6            1 RES     
   27813 H6        1356.9558 -1469.5861   429.5525 H6            1 RES     
   27814 H6        1362.3718 -1470.1132   434.4910 H6            1 RES     
   27815 H6        1361.0475 -1469.1838   435.2854 H6            1 RES     
   27816 H6        1363.7309 -1468.0940   434.2746 H6            1 RES     
   27817 H6        1362.4549 -1467.1667   435.2090 H6            1 RES     
   27818 H6        1362.8035 -1468.6690   437.1420 H6            1 RES     
   27819 H6        1364.0393 -1469.6029   436.2043 H6            1 RES     
   27820 H6        1365.4269 -1467.5383   435.9459 H6            1 RES     
   27821 H6        1364.1865 -1466.6029   436.8722 H6            1 RES     
   27822 H6        1364.5975 -1468.0623   438.8790 H6            1 RES     
   27823 H6        1365.7838 -1469.0273   437.9254 H6            1 RES     
   27824 H6        1367.2569 -1467.0457   437.6577 H6            1 RES     
   27825 H6        1366.9586 -1467.4719   439.3827 H6            1 RES     
   27826 H6        1365.2340 -1465.6513   439.5471 H6            1 RES     
   27827 H6        1365.5767 -1465.1733   437.8373 H6            1 RES     
   27828 H6        1366.7909 -1463.7224   439.4123 H6            1 RES     
   27829 H6        1367.6128 -1465.1535   440.1432 H6            1 RES     
   27830 H6        1367.9459 -1464.6943   438.4224 H6            1 RES     
   27831 C0        1374.0335 -1466.8796   431.2522 C0            1 RES     
   27832 C1        1372.7975 -1466.5907   432.1137 C1            1 RES     
   27833 C1        1373.1053 -1466.2914   433.3952 C1            1 RES     
   27834 S2        1371.7496 -1465.9541   434.3137 S2            1 RES     
   27835 C1        1370.6979 -1466.1944   432.9921 C1            1 RES     
   27836 C1        1371.4281 -1466.5346   431.8475 C1            1 RES     
   27837 C1        1374.5145 -1466.3572   433.5387 C1            1 RES     
   27838 C1        1375.0880 -1466.7215   432.3545 C1            1 RES     
   27839 C1        1376.4786 -1466.8410   432.4446 C1            1 RES     
   27840 C1        1376.9374 -1466.5605   433.7573 C1            1 RES     
   27841 S2        1375.6196 -1466.1347   434.7556 S2            1 RES     
   27842 H3        1370.9882 -1466.7300   430.8795 H3            1 RES     
   27843 H3        1377.1000 -1467.1256   431.6089 H3            1 RES     
   27844 N4        1379.9299 -1466.0578   435.9955 N4            1 RES     
   27845 C1        1378.6735 -1465.9719   435.4727 C1            1 RES     
   27846 C1        1378.3261 -1466.6530   434.2829 C1            1 RES     
   27847 C1        1379.3259 -1467.4352   433.6772 C1            1 RES     
   27848 N4        1379.1472 -1468.1879   432.5623 N4            1 RES     
   27849 S2        1380.6254 -1468.9011   432.3672 S2            1 RES     
   27850 N4        1381.5141 -1468.3165   433.6304 N4            1 RES     
   27851 C1        1380.6219 -1467.5156   434.2613 C1            1 RES     
   27852 C1        1380.9071 -1466.8096   435.4222 C1            1 RES     
   27853 H5        1377.9499 -1465.3554   435.9883 H5            1 RES     
   27854 C0        1374.0667 -1465.6650   430.2474 C0            1 RES     
   27855 C0        1375.2163 -1465.2257   429.2735 C0            1 RES     
   27856 C0        1375.0224 -1463.7124   428.8919 C0            1 RES     
   27857 C0        1373.9290 -1463.2946   427.8644 C0            1 RES     
   27858 C0        1372.4414 -1463.4771   428.2305 C0            1 RES     
   27859 C0        1371.9891 -1462.7992   429.5382 C0            1 RES     
   27860 C0        1372.1376 -1461.2722   429.5115 C0            1 RES     
   27861 C0        1371.6216 -1460.6537   430.8089 C0            1 RES     
   27862 C0        1375.3746 -1466.0291   427.9510 C0            1 RES     
   27863 C0        1376.2210 -1467.2951   428.0464 C0            1 RES     
   27864 C0        1376.2005 -1468.0617   426.7112 C0            1 RES     
   27865 C0        1376.9957 -1469.3745   426.7871 C0            1 RES     
   27866 C0        1376.7610 -1470.2253   425.5268 C0            1 RES     
   27867 C0        1377.3637 -1471.6399   425.6118 C0            1 RES     
   27868 C0        1376.6719 -1472.5146   426.6765 C0            1 RES     
   27869 C0        1377.2033 -1473.9443   426.6633 C0            1 RES     
   27870 H6        1373.1319 -1465.7207   429.6720 H6            1 RES     
   27871 H6        1373.9910 -1464.7938   430.9347 H6            1 RES     
   27872 H6        1376.1727 -1465.2376   429.8423 H6            1 RES     
   27873 H6        1375.9814 -1463.3893   428.4277 H6            1 RES     
   27874 H6        1374.9223 -1463.0955   429.8107 H6            1 RES     
   27875 H6        1374.1090 -1463.8189   426.9023 H6            1 RES     
   27876 H6        1374.0852 -1462.2145   427.6574 H6            1 RES     
   27877 H6        1372.1904 -1464.5501   428.2635 H6            1 RES     
   27878 H6        1371.8307 -1463.0667   427.3969 H6            1 RES     
   27879 H6        1372.5482 -1463.2080   430.3999 H6            1 RES     
   27880 H6        1370.9149 -1463.0447   429.6891 H6            1 RES     
   27881 H6        1373.2043 -1460.9907   429.3917 H6            1 RES     
   27882 H6        1371.5556 -1460.8577   428.6599 H6            1 RES     
   27883 H6        1370.5477 -1460.8986   430.9547 H6            1 RES     
   27884 H6        1371.7312 -1459.5497   430.7653 H6            1 RES     
   27885 H6        1372.2027 -1461.0352   431.6756 H6            1 RES     
   27886 H6        1375.9235 -1465.4080   427.2075 H6            1 RES     
   27887 H6        1374.3632 -1466.2340   427.5357 H6            1 RES     
   27888 H6        1377.2637 -1467.0338   428.3304 H6            1 RES     
   27889 H6        1375.8063 -1467.9280   428.8191 H6            1 RES     
   27890 H6        1375.1378 -1468.3044   426.4858 H6            1 RES     
   27891 H6        1376.6007 -1467.4318   425.8870 H6            1 RES     
   27892 H6        1378.0792 -1469.1705   426.9260 H6            1 RES     
   27893 H6        1376.6535 -1469.9329   427.6671 H6            1 RES     
   27894 H6        1375.6695 -1470.3361   425.3410 H6            1 RES     
   27895 H6        1377.2024 -1469.6912   424.6567 H6            1 RES     
   27896 H6        1378.4556 -1471.5796   425.8080 H6            1 RES     
   27897 H6        1377.2122 -1472.1241   424.6223 H6            1 RES     
   27898 H6        1375.5778 -1472.5468   426.4769 H6            1 RES     
   27899 H6        1376.8399 -1472.1049   427.6899 H6            1 RES     
   27900 H6        1376.6767 -1474.5407   427.4361 H6            1 RES     
   27901 H6        1377.0274 -1474.4137   425.6717 H6            1 RES     
   27902 H6        1378.2926 -1473.9523   426.8865 H6            1 RES     
   27903 C0        1373.8013 -1468.3028   430.6010 C0            1 RES     
   27904 C0        1374.8075 -1469.4996   430.6653 C0            1 RES     
   27905 C0        1374.6238 -1470.4330   429.4183 C0            1 RES     
   27906 C0        1373.4102 -1471.3878   429.2996 C0            1 RES     
   27907 C0        1372.0194 -1470.7651   429.0618 C0            1 RES     
   27908 C0        1371.8995 -1469.8402   427.8322 C0            1 RES     
   27909 C0        1372.2426 -1470.5237   426.5021 C0            1 RES     
   27910 C0        1372.0480 -1469.5573   425.3354 C0            1 RES     
   27911 C0        1374.7735 -1470.3993   431.9355 C0            1 RES     
   27912 C0        1375.2553 -1469.7314   433.2123 C0            1 RES     
   27913 C0        1375.3733 -1470.7126   434.3794 C0            1 RES     
   27914 C0        1375.9114 -1469.9782   435.6126 C0            1 RES     
   27915 C0        1376.0538 -1470.9235   436.8116 C0            1 RES     
   27916 C0        1376.6537 -1470.2316   438.0476 C0            1 RES     
   27917 C0        1375.7723 -1469.0968   438.5933 C0            1 RES     
   27918 C0        1376.3770 -1468.4917   439.8558 C0            1 RES     
   27919 H6        1372.8213 -1468.7082   430.9074 H6            1 RES     
   27920 H6        1373.6621 -1468.0506   429.5381 H6            1 RES     
   27921 H6        1375.8316 -1469.0881   430.5734 H6            1 RES     
   27922 H6        1375.5125 -1471.1010   429.4117 H6            1 RES     
   27923 H6        1374.6616 -1469.8391   428.4895 H6            1 RES     
   27924 H6        1373.3654 -1472.0518   430.1866 H6            1 RES     
   27925 H6        1373.6159 -1472.0528   428.4333 H6            1 RES     
   27926 H6        1371.6929 -1470.2146   429.9603 H6            1 RES     
   27927 H6        1371.2970 -1471.6010   428.9382 H6            1 RES     
   27928 H6        1372.5452 -1468.9520   427.9462 H6            1 RES     
   27929 H6        1370.8477 -1469.4809   427.7873 H6            1 RES     
   27930 H6        1373.3024 -1470.8545   426.5027 H6            1 RES     
   27931 H6        1371.5861 -1471.4080   426.3545 H6            1 RES     
   27932 H6        1370.9911 -1469.2174   425.2873 H6            1 RES     
   27933 H6        1372.3025 -1470.0641   424.3813 H6            1 RES     
   27934 H6        1372.7080 -1468.6707   425.4534 H6            1 RES     
   27935 H6        1375.4683 -1471.2502   431.7563 H6            1 RES     
   27936 H6        1373.7532 -1470.8110   432.0940 H6            1 RES     
   27937 H6        1376.2676 -1469.3210   433.0253 H6            1 RES     
   27938 H6        1374.5357 -1468.9458   433.4954 H6            1 RES     
   27939 H6        1374.3767 -1471.1514   434.6021 H6            1 RES     
   27940 H6        1376.0764 -1471.5319   434.1074 H6            1 RES     
   27941 H6        1376.9077 -1469.5425   435.3747 H6            1 RES     
   27942 H6        1375.2085 -1469.1557   435.8589 H6            1 RES     
   27943 H6        1375.0624 -1471.3550   437.0703 H6            1 RES     
   27944 H6        1376.7330 -1471.7572   436.5271 H6            1 RES     
   27945 H6        1377.6626 -1469.8356   437.7967 H6            1 RES     
   27946 H6        1376.7710 -1471.0025   438.8405 H6            1 RES     
   27947 H6        1374.7617 -1469.4929   438.8329 H6            1 RES     
   27948 H6        1375.6734 -1468.2857   437.8425 H6            1 RES     
   27949 H6        1375.7206 -1467.6765   440.2271 H6            1 RES     
   27950 H6        1376.4686 -1469.2643   440.6484 H6            1 RES     
   27951 H6        1377.3810 -1468.0691   439.6376 H6            1 RES     
   27952 C0        1386.2630 -1466.6362   436.1299 C0            1 RES     
   27953 C1        1384.7487 -1466.7965   436.3162 C1            1 RES     
   27954 C1        1384.4024 -1467.1021   437.5863 C1            1 RES     
   27955 S2        1382.7479 -1467.2476   437.7779 S2            1 RES     
   27956 C1        1382.4473 -1466.8883   436.1375 C1            1 RES     
   27957 C1        1383.6520 -1466.6573   435.4635 C1            1 RES     
   27958 C1        1385.5883 -1467.1935   438.3584 C1            1 RES     
   27959 C1        1386.6787 -1466.9697   437.5679 C1            1 RES     
   27960 C1        1387.8837 -1467.0852   438.2684 C1            1 RES     
   27961 C1        1387.6606 -1467.4183   439.6292 C1            1 RES     
   27962 S2        1385.9842 -1467.5201   439.9358 S2            1 RES     
   27963 H3        1383.7251 -1466.4038   434.4151 H3            1 RES     
   27964 H3        1388.8491 -1466.9470   437.8053 H3            1 RES     
   27965 N4        1389.2053 -1467.9138   443.0329 N4            1 RES     
   27966 C1        1388.3091 -1467.6296   442.0453 C1            1 RES     
   27967 C1        1388.6726 -1467.7067   440.6807 C1            1 RES     
   27968 C1        1389.9892 -1468.1074   440.3901 C1            1 RES     
   27969 N4        1390.4853 -1468.2785   439.1386 N4            1 RES     
   27970 S2        1392.0291 -1468.7924   439.4292 S2            1 RES     
   27971 N4        1392.1302 -1468.8221   441.0773 N4            1 RES     
   27972 C1        1390.8925 -1468.4136   441.4471 C1            1 RES     
   27973 C1        1390.4811 -1468.3026   442.7685 C1            1 RES     
   27974 H5        1387.3116 -1467.3295   442.3357 H5            1 RES     
   27975 C0        1386.4299 -1465.0982   435.8258 C0            1 RES     
   27976 C0        1387.7433 -1464.2399   435.7900 C0            1 RES     
   27977 C0        1387.3762 -1462.7225   435.9796 C0            1 RES     
   27978 C0        1386.7579 -1461.9102   434.8033 C0            1 RES     
   27979 C0        1385.3461 -1462.2724   434.2971 C0            1 RES     
   27980 C0        1384.2347 -1462.2697   435.3643 C0            1 RES     
   27981 C0        1384.0129 -1460.8927   436.0039 C0            1 RES     
   27982 C0        1382.8642 -1460.9397   437.0091 C0            1 RES     
   27983 C0        1388.6340 -1464.3545   434.5200 C0            1 RES     
   27984 C0        1389.6339 -1465.5072   434.5183 C0            1 RES     
   27985 C0        1390.3650 -1465.5873   433.1655 C0            1 RES     
   27986 C0        1391.3396 -1466.7741   433.1057 C0            1 RES     
   27987 C0        1391.8719 -1466.9681   431.6751 C0            1 RES     
   27988 C0        1392.6985 -1468.2541   431.4897 C0            1 RES     
   27989 C0        1391.8500 -1469.5312   431.6515 C0            1 RES     
   27990 C0        1392.6597 -1470.7879   431.3484 C0            1 RES     
   27991 H6        1385.8707 -1464.9090   434.8988 H6            1 RES     
   27992 H6        1385.8648 -1464.6339   436.6639 H6            1 RES     
   27993 H6        1388.3402 -1464.4859   436.6964 H6            1 RES     
   27994 H6        1388.3343 -1462.2026   436.2061 H6            1 RES     
   27995 H6        1386.7521 -1462.5902   436.8894 H6            1 RES     
   27996 H6        1387.4482 -1461.9386   433.9341 H6            1 RES     
   27997 H6        1386.7255 -1460.8500   435.1330 H6            1 RES     
   27998 H6        1385.3679 -1463.2498   433.7874 H6            1 RES     
   27999 H6        1385.0690 -1461.5435   433.5045 H6            1 RES     
   28000 H6        1384.4546 -1463.0111   436.1544 H6            1 RES     
   28001 H6        1383.2906 -1462.5814   434.8659 H6            1 RES     
   28002 H6        1384.9288 -1460.5632   436.5368 H6            1 RES     
   28003 H6        1383.7674 -1460.1513   435.2129 H6            1 RES     
   28004 H6        1381.9224 -1461.2485   436.5072 H6            1 RES     
   28005 H6        1382.7161 -1459.9331   437.4536 H6            1 RES     
   28006 H6        1383.0947 -1461.6585   437.8244 H6            1 RES     
   28007 H6        1389.2816 -1463.4520   434.4430 H6            1 RES     
   28008 H6        1387.9754 -1464.3725   433.6237 H6            1 RES     
   28009 H6        1390.3622 -1465.3788   435.3486 H6            1 RES     
   28010 H6        1389.0939 -1466.4303   434.6790 H6            1 RES     
   28011 H6        1389.5900 -1465.7261   432.3787 H6            1 RES     
   28012 H6        1390.9149 -1464.6439   432.9564 H6            1 RES     
   28013 H6        1392.1787 -1466.6303   433.8199 H6            1 RES     
   28014 H6        1390.7997 -1467.6777   433.4145 H6            1 RES     
   28015 H6        1391.0234 -1467.0078   430.9563 H6            1 RES     
   28016 H6        1392.4999 -1466.0883   431.4131 H6            1 RES     
   28017 H6        1393.5548 -1468.2641   432.1974 H6            1 RES     
   28018 H6        1393.1013 -1468.2418   430.4533 H6            1 RES     
   28019 H6        1390.9865 -1469.4947   430.9507 H6            1 RES     
   28020 H6        1391.4691 -1469.6203   432.6859 H6            1 RES     
   28021 H6        1392.0133 -1471.6811   431.4689 H6            1 RES     
   28022 H6        1393.0385 -1470.7620   430.3042 H6            1 RES     
   28023 H6        1393.5185 -1470.8711   432.0498 H6            1 RES     
   28024 C0        1386.6748 -1467.6161   434.9577 C0            1 RES     
   28025 C0        1387.8111 -1468.6893   435.0359 C0            1 RES     
   28026 C0        1388.4019 -1468.9618   433.6089 C0            1 RES     
   28027 C0        1387.6190 -1469.7871   432.5580 C0            1 RES     
   28028 C0        1386.3568 -1469.1561   431.9354 C0            1 RES     
   28029 C0        1386.5543 -1467.7782   431.2691 C0            1 RES     
   28030 C0        1387.5812 -1467.7783   430.1292 C0            1 RES     
   28031 C0        1387.6768 -1466.3935   429.4918 C0            1 RES     
   28032 C0        1387.4560 -1470.0666   435.6691 C0            1 RES     
   28033 C0        1387.1761 -1470.0374   437.1622 C0            1 RES     
   28034 C0        1387.0169 -1471.4374   437.7568 C0            1 RES     
   28035 C0        1386.7889 -1471.3279   439.2688 C0            1 RES     
   28036 C0        1386.6289 -1472.7097   439.9142 C0            1 RES     
   28037 C0        1386.4638 -1472.6381   441.4418 C0            1 RES     
   28038 C0        1385.1924 -1471.8932   441.8788 C0            1 RES     
   28039 C0        1385.0408 -1471.9107   443.3961 C0            1 RES     
   28040 H6        1385.7850 -1468.1385   434.5656 H6            1 RES     
   28041 H6        1386.9446 -1466.9137   434.1536 H6            1 RES     
   28042 H6        1388.6470 -1468.2574   435.6203 H6            1 RES     
   28043 H6        1389.3399 -1469.5341   433.7781 H6            1 RES     
   28044 H6        1388.6881 -1468.0114   433.1276 H6            1 RES     
   28045 H6        1387.3611 -1470.7813   432.9761 H6            1 RES     
   28046 H6        1388.3245 -1469.9837   431.7222 H6            1 RES     
   28047 H6        1385.5593 -1469.0790   432.6937 H6            1 RES     
   28048 H6        1385.9768 -1469.8620   431.1653 H6            1 RES     
   28049 H6        1386.8589 -1467.0231   432.0147 H6            1 RES     
   28050 H6        1385.5691 -1467.4616   430.8612 H6            1 RES     
   28051 H6        1388.5855 -1468.0494   430.5172 H6            1 RES     
   28052 H6        1387.2805 -1468.5151   429.3535 H6            1 RES     
   28053 H6        1386.6931 -1466.0928   429.0714 H6            1 RES     
   28054 H6        1388.4246 -1466.4082   428.6719 H6            1 RES     
   28055 H6        1387.9926 -1465.6413   430.2469 H6            1 RES     
   28056 H6        1388.3413 -1470.7284   435.5384 H6            1 RES     
   28057 H6        1386.5951 -1470.5286   435.1389 H6            1 RES     
   28058 H6        1388.0423 -1469.5639   437.6657 H6            1 RES     
   28059 H6        1386.2405 -1469.4815   437.3373 H6            1 RES     
   28060 H6        1386.1559 -1471.9521   437.2781 H6            1 RES     
   28061 H6        1387.9414 -1472.0289   437.5695 H6            1 RES     
   28062 H6        1387.6567 -1470.8092   439.7342 H6            1 RES     
   28063 H6        1385.8747 -1470.7220   439.4372 H6            1 RES     
   28064 H6        1385.7555 -1473.2341   439.4689 H6            1 RES     
   28065 H6        1387.5412 -1473.3089   439.6998 H6            1 RES     
   28066 H6        1387.3577 -1472.1485   441.8879 H6            1 RES     
   28067 H6        1386.4129 -1473.6813   441.8237 H6            1 RES     
   28068 H6        1384.3019 -1472.3777   441.4229 H6            1 RES     
   28069 H6        1385.2319 -1470.8327   441.5544 H6            1 RES     
   28070 H6        1384.1160 -1471.3668   443.6826 H6            1 RES     
   28071 H6        1384.9680 -1472.9559   443.7647 H6            1 RES     
   28072 H6        1385.9102 -1471.4123   443.8758 H6            1 RES     
   28073 C0        1394.8186 -1468.3458   445.9935 C0            1 RES     
   28074 C1        1393.4546 -1468.6075   445.3419 C1            1 RES     
   28075 C1        1392.6855 -1469.4622   446.0521 C1            1 RES     
   28076 S2        1391.1932 -1469.7163   445.3421 S2            1 RES     
   28077 C1        1391.5417 -1468.6610   444.0478 C1            1 RES     
   28078 C1        1392.8254 -1468.1228   444.1936 C1            1 RES     
   28079 C1        1393.4154 -1469.8658   447.1988 C1            1 RES     
   28080 C1        1394.6504 -1469.2838   447.1950 C1            1 RES     
   28081 C1        1395.4333 -1469.6761   448.2856 C1            1 RES     
   28082 C1        1394.7398 -1470.5935   449.1162 C1            1 RES     
   28083 S2        1393.1693 -1470.8613   448.5027 S2            1 RES     
   28084 H3        1393.2741 -1467.4210   443.5045 H3            1 RES     
   28085 H3        1396.4405 -1469.3214   448.4448 H3            1 RES     
   28086 N4        1394.7620 -1472.5393   452.3458 N4            1 RES     
   28087 C1        1394.3308 -1471.8597   451.2451 C1            1 RES     
   28088 C1        1395.2461 -1471.3031   450.3217 C1            1 RES     
   28089 C1        1396.6150 -1471.4989   450.5792 C1            1 RES     
   28090 N4        1397.6203 -1471.0742   449.7728 N4            1 RES     
   28091 S2        1398.9679 -1471.6286   450.5530 S2            1 RES     
   28092 N4        1398.3635 -1472.3980   451.8834 N4            1 RES     
   28093 C1        1397.0281 -1472.2293   451.7294 C1            1 RES     
   28094 C1        1396.0813 -1472.7372   452.6086 C1            1 RES     
   28095 H5        1393.2647 -1471.7462   451.1037 H5            1 RES     
   28096 C0        1394.7279 -1466.8331   446.4288 C0            1 RES     
   28097 C0        1395.6865 -1466.0217   447.3698 C0            1 RES     
   28098 C0        1394.9247 -1464.7628   447.9249 C0            1 RES     
   28099 C0        1394.6908 -1463.5207   447.0147 C0            1 RES     
   28100 C0        1393.7585 -1463.6470   445.7919 C0            1 RES     
   28101 C0        1392.3338 -1464.1525   446.0899 C0            1 RES     
   28102 C0        1391.5411 -1463.2191   447.0144 C0            1 RES     
   28103 C0        1390.1220 -1463.7417   447.2265 C0            1 RES     
   28104 C0        1397.0312 -1465.5292   446.7624 C0            1 RES     
   28105 C0        1398.1794 -1466.5334   446.8028 C0            1 RES     
   28106 C0        1399.4115 -1465.9764   446.0662 C0            1 RES     
   28107 C0        1400.5704 -1466.9852   446.0355 C0            1 RES     
   28108 C0        1401.6889 -1466.4992   445.0973 C0            1 RES     
   28109 C0        1402.7955 -1467.5431   444.8581 C0            1 RES     
   28110 C0        1402.2890 -1468.7743   444.0804 C0            1 RES     
   28111 C0        1403.4238 -1469.7393   443.7520 C0            1 RES     
   28112 H6        1394.5880 -1466.2580   445.5028 H6            1 RES     
   28113 H6        1393.7681 -1466.8111   446.9905 H6            1 RES     
   28114 H6        1395.8816 -1466.6372   448.2761 H6            1 RES     
   28115 H6        1395.5420 -1464.3798   448.7686 H6            1 RES     
   28116 H6        1393.9617 -1465.0705   448.3862 H6            1 RES     
   28117 H6        1395.6697 -1463.1372   446.6575 H6            1 RES     
   28118 H6        1394.2706 -1462.7253   447.6662 H6            1 RES     
   28119 H6        1394.2262 -1464.2875   445.0261 H6            1 RES     
   28120 H6        1393.6796 -1462.6450   445.3164 H6            1 RES     
   28121 H6        1392.3666 -1465.1658   446.5307 H6            1 RES     
   28122 H6        1391.7946 -1464.2266   445.1199 H6            1 RES     
   28123 H6        1392.0367 -1463.1453   448.0046 H6            1 RES     
   28124 H6        1391.4863 -1462.2059   446.5604 H6            1 RES     
   28125 H6        1389.5856 -1463.8116   446.2560 H6            1 RES     
   28126 H6        1389.5646 -1463.0486   447.8911 H6            1 RES     
   28127 H6        1390.1480 -1464.7461   447.7010 H6            1 RES     
   28128 H6        1397.4151 -1464.6749   447.3645 H6            1 RES     
   28129 H6        1396.8406 -1465.1550   445.7323 H6            1 RES     
   28130 H6        1398.4326 -1466.7777   447.8575 H6            1 RES     
   28131 H6        1397.8589 -1467.4415   446.3107 H6            1 RES     
   28132 H6        1399.1014 -1465.7620   445.0188 H6            1 RES     
   28133 H6        1399.7564 -1465.0281   446.5329 H6            1 RES     
   28134 H6        1400.9661 -1467.1608   447.0590 H6            1 RES     
   28135 H6        1400.1824 -1467.9429   445.6672 H6            1 RES     
   28136 H6        1401.2623 -1466.2289   444.1058 H6            1 RES     
   28137 H6        1402.1398 -1465.5819   445.5361 H6            1 RES     
   28138 H6        1403.2455 -1467.8525   445.8256 H6            1 RES     
   28139 H6        1403.5845 -1467.0543   444.2456 H6            1 RES     
   28140 H6        1401.8235 -1468.4446   443.1251 H6            1 RES     
   28141 H6        1401.5383 -1469.3303   444.6724 H6            1 RES     
   28142 H6        1403.0202 -1470.6049   443.1880 H6            1 RES     
   28143 H6        1404.1919 -1469.2354   443.1270 H6            1 RES     
   28144 H6        1403.8961 -1470.1111   444.6874 H6            1 RES     
   28145 C0        1395.9089 -1468.6800   444.8966 C0            1 RES     
   28146 C0        1397.1235 -1469.6463   445.0966 C0            1 RES     
   28147 C0        1398.3103 -1469.2305   444.1594 C0            1 RES     
   28148 C0        1398.2686 -1469.5090   442.6365 C0            1 RES     
   28149 C0        1397.2802 -1468.6937   441.7779 C0            1 RES     
   28150 C0        1397.4082 -1467.1593   441.8822 C0            1 RES     
   28151 C0        1398.7893 -1466.6205   441.4872 C0            1 RES     
   28152 C0        1398.8142 -1465.0953   441.5673 C0            1 RES     
   28153 C0        1396.8718 -1471.1688   444.8899 C0            1 RES     
   28154 C0        1395.9864 -1471.8244   445.9363 C0            1 RES     
   28155 C0        1395.9276 -1473.3451   445.7858 C0            1 RES     
   28156 C0        1395.0605 -1473.9364   446.9031 C0            1 RES     
   28157 C0        1394.9752 -1475.4639   446.7992 C0            1 RES     
   28158 C0        1394.1654 -1476.0946   447.9448 C0            1 RES     
   28159 C0        1392.6920 -1475.6571   447.9567 C0            1 RES     
   28160 C0        1391.9196 -1476.3623   449.0665 C0            1 RES     
   28161 H6        1395.4222 -1468.9887   443.9552 H6            1 RES     
   28162 H6        1396.3190 -1467.6839   444.6676 H6            1 RES     
   28163 H6        1397.5031 -1469.5064   446.1277 H6            1 RES     
   28164 H6        1399.1939 -1469.7959   444.5275 H6            1 RES     
   28165 H6        1398.5387 -1468.1589   444.2872 H6            1 RES     
   28166 H6        1398.1021 -1470.5904   442.4560 H6            1 RES     
   28167 H6        1399.2865 -1469.2902   442.2481 H6            1 RES     
   28168 H6        1396.2432 -1468.9860   442.0147 H6            1 RES     
   28169 H6        1397.4430 -1468.9836   440.7171 H6            1 RES     
   28170 H6        1397.1782 -1466.8162   442.9060 H6            1 RES     
   28171 H6        1396.6453 -1466.7150   441.2054 H6            1 RES     
   28172 H6        1399.5664 -1467.0147   442.1751 H6            1 RES     
   28173 H6        1399.0310 -1466.9335   440.4486 H6            1 RES     
   28174 H6        1398.0618 -1464.6596   440.8753 H6            1 RES     
   28175 H6        1399.8192 -1464.7206   441.2820 H6            1 RES     
   28176 H6        1398.5908 -1464.7589   442.6029 H6            1 RES     
   28177 H6        1397.8581 -1471.6795   444.9626 H6            1 RES     
   28178 H6        1396.4546 -1471.3606   443.8776 H6            1 RES     
   28179 H6        1396.4169 -1471.6100   446.9347 H6            1 RES     
   28180 H6        1394.9626 -1471.4292   445.8331 H6            1 RES     
   28181 H6        1395.5011 -1473.6072   444.7935 H6            1 RES     
   28182 H6        1396.9555 -1473.7666   445.8603 H6            1 RES     
   28183 H6        1395.4978 -1473.6645   447.8900 H6            1 RES     
   28184 H6        1394.0463 -1473.4932   446.8245 H6            1 RES     
   28185 H6        1394.5258 -1475.7501   445.8233 H6            1 RES     
   28186 H6        1396.0057 -1475.8804   446.8435 H6            1 RES     
   28187 H6        1394.6405 -1475.8394   448.9178 H6            1 RES     
   28188 H6        1394.2067 -1477.1986   447.8176 H6            1 RES     
   28189 H6        1392.2228 -1475.9033   446.9796 H6            1 RES     
   28190 H6        1392.6122 -1474.5639   448.1301 H6            1 RES     
   28191 H6        1390.8607 -1476.0280   449.0513 H6            1 RES     
   28192 H6        1391.9479 -1477.4625   448.9173 H6            1 RES     
   28193 H6        1392.3570 -1476.1150   450.0573 H6            1 RES     
   28194 C0        1398.5118 -1474.1350   457.2298 C0            1 RES     
   28195 C1        1397.6591 -1474.1049   455.9549 C1            1 RES     
   28196 C1        1396.8887 -1475.2056   455.8088 C1            1 RES     
   28197 S2        1395.9469 -1475.1453   454.4287 S2            1 RES     
   28198 C1        1396.5500 -1473.6111   453.9895 C1            1 RES     
   28199 C1        1397.4817 -1473.1678   454.9352 C1            1 RES     
   28200 C1        1397.1355 -1476.0674   456.9076 C1            1 RES     
   28201 C1        1398.0778 -1475.5186   457.7291 C1            1 RES     
   28202 C1        1398.3919 -1476.3437   458.8138 C1            1 RES     
   28203 C1        1397.6515 -1477.5531   458.7748 C1            1 RES     
   28204 S2        1396.6035 -1477.5502   457.4271 S2            1 RES     
   28205 H3        1397.9995 -1472.2202   454.8832 H3            1 RES     
   28206 H3        1399.1200 -1476.0763   459.5649 H3            1 RES     
   28207 N4        1396.7622 -1480.7478   460.5690 N4            1 RES     
   28208 C1        1396.6913 -1479.6540   459.7580 C1            1 RES     
   28209 C1        1397.7507 -1478.7193   459.6930 C1            1 RES     
   28210 C1        1398.8838 -1478.9791   460.4848 C1            1 RES     
   28211 N4        1400.0035 -1478.2127   460.5045 N4            1 RES     
   28212 S2        1400.9814 -1479.0291   461.5578 S2            1 RES     
   28213 N4        1400.0714 -1480.3306   462.0112 N4            1 RES     
   28214 C1        1398.9300 -1480.1410   461.3064 C1            1 RES     
   28215 C1        1397.8503 -1481.0131   461.3401 C1            1 RES     
   28216 H5        1395.7930 -1479.5132   459.1726 H5            1 RES     
   28217 C0        1397.8882 -1472.9852   458.1101 C0            1 RES     
   28218 C0        1398.1334 -1472.6653   459.6269 C0            1 RES     
   28219 C0        1396.9329 -1471.8113   460.1772 C0            1 RES     
   28220 C0        1396.8198 -1470.2976   459.8282 C0            1 RES     
   28221 C0        1396.5544 -1469.8785   458.3672 C0            1 RES     
   28222 C0        1395.3034 -1470.4965   457.7137 C0            1 RES     
   28223 C0        1393.9965 -1470.1004   458.4134 C0            1 RES     
   28224 C0        1392.7909 -1470.6947   457.6886 C0            1 RES     
   28225 C0        1399.4489 -1471.9209   459.9937 C0            1 RES     
   28226 C0        1400.6736 -1472.8083   460.1965 C0            1 RES     
   28227 C0        1401.9304 -1471.9505   460.4322 C0            1 RES     
   28228 C0        1403.1957 -1472.8096   460.5826 C0            1 RES     
   28229 C0        1404.4556 -1471.9265   460.5776 C0            1 RES     
   28230 C0        1405.7721 -1472.7238   460.5255 C0            1 RES     
   28231 C0        1405.9524 -1473.4815   459.1949 C0            1 RES     
   28232 C0        1407.3126 -1474.1675   459.1169 C0            1 RES     
   28233 H6        1398.0224 -1472.0568   457.5374 H6            1 RES     
   28234 H6        1396.8060 -1473.2415   458.0927 H6            1 RES     
   28235 H6        1398.0654 -1473.6195   460.1954 H6            1 RES     
   28236 H6        1397.0230 -1471.8372   461.2866 H6            1 RES     
   28237 H6        1395.9689 -1472.3162   459.9524 H6            1 RES     
   28238 H6        1397.7355 -1469.7717   460.1716 H6            1 RES     
   28239 H6        1395.9870 -1469.8926   460.4415 H6            1 RES     
   28240 H6        1397.4404 -1470.0926   457.7470 H6            1 RES     
   28241 H6        1396.4493 -1468.7719   458.3420 H6            1 RES     
   28242 H6        1395.3857 -1471.5986   457.6850 H6            1 RES     
   28243 H6        1395.2617 -1470.1363   456.6623 H6            1 RES     
   28244 H6        1393.9915 -1470.4711   459.4593 H6            1 RES     
   28245 H6        1393.9006 -1468.9930   458.4210 H6            1 RES     
   28246 H6        1392.7509 -1470.3304   456.6397 H6            1 RES     
   28247 H6        1391.8570 -1470.3900   458.2061 H6            1 RES     
   28248 H6        1392.8509 -1471.8042   457.6864 H6            1 RES     
   28249 H6        1399.3257 -1471.4227   460.9818 H6            1 RES     
   28250 H6        1399.6308 -1471.1257   459.2373 H6            1 RES     
   28251 H6        1400.5051 -1473.4973   461.0528 H6            1 RES     
   28252 H6        1400.8184 -1473.4027   459.3047 H6            1 RES     
   28253 H6        1402.0532 -1471.2928   459.5426 H6            1 RES     
   28254 H6        1401.8082 -1471.3081   461.3314 H6            1 RES     
   28255 H6        1403.1486 -1473.4199   461.5101 H6            1 RES     
   28256 H6        1403.2407 -1473.5058   459.7361 H6            1 RES     
   28257 H6        1404.4396 -1471.2469   459.6967 H6            1 RES     
   28258 H6        1404.4452 -1471.2967   461.4944 H6            1 RES     
   28259 H6        1405.8280 -1473.4269   461.3839 H6            1 RES     
   28260 H6        1406.6052 -1471.9930   460.6169 H6            1 RES     
   28261 H6        1405.8729 -1472.7661   458.3464 H6            1 RES     
   28262 H6        1405.1774 -1474.2620   459.0801 H6            1 RES     
   28263 H6        1407.4052 -1474.6935   458.1448 H6            1 RES     
   28264 H6        1408.1292 -1473.4180   459.1942 H6            1 RES     
   28265 H6        1407.4164 -1474.9112   459.9370 H6            1 RES     
   28266 C0        1400.0095 -1473.9121   456.7705 C0            1 RES     
   28267 C0        1401.2154 -1474.8364   457.1454 C0            1 RES     
   28268 C0        1402.5513 -1474.0147   457.1473 C0            1 RES     
   28269 C0        1403.2276 -1473.5754   455.8251 C0            1 RES     
   28270 C0        1402.5349 -1472.4828   454.9855 C0            1 RES     
   28271 C0        1402.2377 -1471.1589   455.7208 C0            1 RES     
   28272 C0        1403.4839 -1470.4683   456.2898 C0            1 RES     
   28273 C0        1403.1092 -1469.1441   456.9525 C0            1 RES     
   28274 C0        1401.4451 -1476.1062   456.2741 C0            1 RES     
   28275 C0        1400.3832 -1477.1841   456.4120 C0            1 RES     
   28276 C0        1400.7572 -1478.4733   455.6794 C0            1 RES     
   28277 C0        1399.6658 -1479.5256   455.9065 C0            1 RES     
   28278 C0        1399.9985 -1480.8425   455.1948 C0            1 RES     
   28279 C0        1398.9545 -1481.9414   455.4568 C0            1 RES     
   28280 C0        1397.5582 -1481.5903   454.9186 C0            1 RES     
   28281 C0        1396.5799 -1482.7385   455.1420 C0            1 RES     
   28282 H6        1400.0573 -1473.7728   455.6766 H6            1 RES     
   28283 H6        1400.2283 -1472.9111   457.1741 H6            1 RES     
   28284 H6        1401.0760 -1475.1693   458.1925 H6            1 RES     
   28285 H6        1403.3014 -1474.6652   457.6475 H6            1 RES     
   28286 H6        1402.4419 -1473.1119   457.7715 H6            1 RES     
   28287 H6        1403.4159 -1474.4618   455.1858 H6            1 RES     
   28288 H6        1404.2299 -1473.1815   456.0995 H6            1 RES     
   28289 H6        1401.5979 -1472.8742   454.5546 H6            1 RES     
   28290 H6        1403.1964 -1472.2578   454.1208 H6            1 RES     
   28291 H6        1401.5205 -1471.3212   456.5443 H6            1 RES     
   28292 H6        1401.7530 -1470.4742   454.9904 H6            1 RES     
   28293 H6        1403.9645 -1471.1132   457.0552 H6            1 RES     
   28294 H6        1404.2104 -1470.2723   455.4721 H6            1 RES     
   28295 H6        1402.6421 -1468.4599   456.2120 H6            1 RES     
   28296 H6        1404.0192 -1468.6580   457.3616 H6            1 RES     
   28297 H6        1402.3944 -1469.3175   457.7859 H6            1 RES     
   28298 H6        1402.3973 -1476.5719   456.6137 H6            1 RES     
   28299 H6        1401.5561 -1475.8290   455.2034 H6            1 RES     
   28300 H6        1400.2845 -1477.4346   457.4870 H6            1 RES     
   28301 H6        1399.4386 -1476.8084   455.9858 H6            1 RES     
   28302 H6        1400.8681 -1478.2680   454.5927 H6            1 RES     
   28303 H6        1401.7237 -1478.8594   456.0749 H6            1 RES     
   28304 H6        1399.5643 -1479.7194   456.9978 H6            1 RES     
   28305 H6        1398.7078 -1479.1180   455.5226 H6            1 RES     
   28306 H6        1400.0881 -1480.6666   454.1006 H6            1 RES     
   28307 H6        1400.9789 -1481.2104   455.5699 H6            1 RES     
   28308 H6        1398.8958 -1482.1430   456.5493 H6            1 RES     
   28309 H6        1399.3070 -1482.8673   454.9516 H6            1 RES     
   28310 H6        1397.6216 -1481.3786   453.8293 H6            1 RES     
   28311 H6        1397.1551 -1480.6958   455.4372 H6            1 RES     
   28312 H6        1395.5818 -1482.4577   454.7442 H6            1 RES     
   28313 H6        1396.9294 -1483.6514   454.6147 H6            1 RES     
   28314 H6        1396.4826 -1482.9561   456.2271 H6            1 RES     
   28315 C0        1398.3440 -1484.2936   465.6075 C0            1 RES     
   28316 C1        1398.1331 -1483.7097   464.2047 C1            1 RES     
   28317 C1        1397.7837 -1484.6427   463.2914 C1            1 RES     
   28318 S2        1397.5325 -1483.9863   461.7744 S2            1 RES     
   28319 C1        1397.8812 -1482.4059   462.3142 C1            1 RES     
   28320 C1        1398.1883 -1482.4171   463.6797 C1            1 RES     
   28321 C1        1397.7377 -1485.9022   463.9412 C1            1 RES     
   28322 C1        1398.0817 -1485.7629   465.2550 C1            1 RES     
   28323 C1        1398.0917 -1486.9819   465.9406 C1            1 RES     
   28324 C1        1397.7489 -1488.0595   465.0840 C1            1 RES     
   28325 S2        1397.4048 -1487.4714   463.5186 S2            1 RES     
   28326 H3        1398.4375 -1481.5369   464.2557 H3            1 RES     
   28327 H3        1398.3454 -1487.0666   466.9866 H3            1 RES     
   28328 N4        1396.9696 -1491.7397   464.8281 N4            1 RES     
   28329 C1        1396.9919 -1490.3992   464.5789 C1            1 RES     
   28330 C1        1397.7229 -1489.5123   465.4030 C1            1 RES     
   28331 C1        1398.4384 -1490.0761   466.4748 C1            1 RES     
   28332 N4        1399.2262 -1489.3762   467.3298 N4            1 RES     
   28333 S2        1399.8273 -1490.5580   468.3166 S2            1 RES     
   28334 N4        1399.1492 -1491.9442   467.7284 N4            1 RES     
   28335 C1        1398.4062 -1491.4825   466.6939 C1            1 RES     
   28336 C1        1397.6558 -1492.3000   465.8595 C1            1 RES     
   28337 H5        1396.4222 -1490.0295   463.7374 H5            1 RES     
   28338 C0        1397.1522 -1483.6807   466.4381 C0            1 RES     
   28339 C0        1396.6464 -1484.0758   467.8702 C0            1 RES     
   28340 C0        1395.1610 -1483.5905   468.0475 C0            1 RES     
   28341 C0        1394.8505 -1482.0856   468.3022 C0            1 RES     
   28342 C0        1395.1394 -1481.0574   467.1887 C0            1 RES     
   28343 C0        1394.4707 -1481.3415   465.8298 C0            1 RES     
   28344 C0        1392.9378 -1481.3345   465.8962 C0            1 RES     
   28345 C0        1392.3334 -1481.5642   464.5126 C0            1 RES     
   28346 C0        1397.4630 -1483.5478   469.0842 C0            1 RES     
   28347 C0        1398.6577 -1484.4028   469.4965 C0            1 RES     
   28348 C0        1399.4518 -1483.7158   470.6228 C0            1 RES     
   28349 C0        1400.6976 -1484.5210   471.0247 C0            1 RES     
   28350 C0        1401.5905 -1483.7026   471.9734 C0            1 RES     
   28351 C0        1402.9523 -1484.3599   472.2652 C0            1 RES     
   28352 C0        1403.8549 -1484.4297   471.0171 C0            1 RES     
   28353 C0        1405.2394 -1484.9750   471.3527 C0            1 RES     
   28354 H6        1397.2919 -1482.5909   466.4118 H6            1 RES     
   28355 H6        1396.2750 -1483.9260   465.7996 H6            1 RES     
   28356 H6        1396.5724 -1485.1852   467.9154 H6            1 RES     
   28357 H6        1394.7749 -1484.1132   468.9515 H6            1 RES     
   28358 H6        1394.5342 -1483.9611   467.2081 H6            1 RES     
   28359 H6        1395.3798 -1481.7511   469.2192 H6            1 RES     
   28360 H6        1393.7663 -1482.0208   468.5345 H6            1 RES     
   28361 H6        1396.2276 -1480.9476   467.0503 H6            1 RES     
   28362 H6        1394.7951 -1480.0617   467.5443 H6            1 RES     
   28363 H6        1394.8168 -1482.3092   465.4226 H6            1 RES     
   28364 H6        1394.7951 -1480.5458   465.1237 H6            1 RES     
   28365 H6        1392.5775 -1482.1381   466.5713 H6            1 RES     
   28366 H6        1392.5875 -1480.3527   466.2823 H6            1 RES     
   28367 H6        1392.6572 -1480.7660   463.8109 H6            1 RES     
   28368 H6        1391.2254 -1481.5478   464.5821 H6            1 RES     
   28369 H6        1392.6505 -1482.5511   464.1125 H6            1 RES     
   28370 H6        1396.8175 -1483.5532   469.9914 H6            1 RES     
   28371 H6        1397.7541 -1482.4927   468.8857 H6            1 RES     
   28372 H6        1398.3108 -1485.4082   469.8208 H6            1 RES     
   28373 H6        1399.3041 -1484.5263   468.6383 H6            1 RES     
   28374 H6        1399.7805 -1482.7243   470.2381 H6            1 RES     
   28375 H6        1398.8106 -1483.5525   471.5163 H6            1 RES     
   28376 H6        1400.4077 -1485.4857   471.4941 H6            1 RES     
   28377 H6        1401.2618 -1484.7579   470.1143 H6            1 RES     
   28378 H6        1401.7890 -1482.6986   471.5366 H6            1 RES     
   28379 H6        1401.0425 -1483.5559   472.9302 H6            1 RES     
   28380 H6        1402.8038 -1485.3736   472.6947 H6            1 RES     
   28381 H6        1403.4676 -1483.7306   473.0234 H6            1 RES     
   28382 H6        1403.9756 -1483.4099   470.5886 H6            1 RES     
   28383 H6        1403.4120 -1485.0913   470.2496 H6            1 RES     
   28384 H6        1405.8580 -1485.0023   470.4324 H6            1 RES     
   28385 H6        1405.7418 -1484.3231   472.0990 H6            1 RES     
   28386 H6        1405.1586 -1486.0065   471.7597 H6            1 RES     
   28387 C0        1399.7945 -1483.8530   466.0611 C0            1 RES     
   28388 C0        1400.9085 -1484.8191   466.5850 C0            1 RES     
   28389 C0        1401.8796 -1484.0568   467.5524 C0            1 RES     
   28390 C0        1402.9273 -1483.0518   467.0134 C0            1 RES     
   28391 C0        1402.4189 -1481.7137   466.4391 C0            1 RES     
   28392 C0        1401.5324 -1480.8725   467.3816 C0            1 RES     
   28393 C0        1402.2154 -1480.4857   468.6998 C0            1 RES     
   28394 C0        1401.2920 -1479.6132   469.5478 C0            1 RES     
   28395 C0        1401.7809 -1485.5520   465.5239 C0            1 RES     
   28396 C0        1401.0508 -1486.5997   464.7006 C0            1 RES     
   28397 C0        1401.9950 -1487.4094   463.8108 C0            1 RES     
   28398 C0        1401.1953 -1488.4752   463.0530 C0            1 RES     
   28399 C0        1402.1011 -1489.3200   462.1490 C0            1 RES     
   28400 C0        1401.3390 -1490.4421   461.4236 C0            1 RES     
   28401 C0        1400.2641 -1489.9175   460.4582 C0            1 RES     
   28402 C0        1399.5875 -1491.0647   459.7153 C0            1 RES     
   28403 H6        1400.2676 -1483.2330   465.2799 H6            1 RES     
   28404 H6        1399.5763 -1483.1379   466.8697 H6            1 RES     
   28405 H6        1400.4213 -1485.5925   467.2104 H6            1 RES     
   28406 H6        1402.4771 -1484.8459   468.0587 H6            1 RES     
   28407 H6        1401.3044 -1483.5366   468.3368 H6            1 RES     
   28408 H6        1403.5739 -1483.5487   466.2618 H6            1 RES     
   28409 H6        1403.5928 -1482.8017   467.8675 H6            1 RES     
   28410 H6        1401.8762 -1481.8892   465.4949 H6            1 RES     
   28411 H6        1403.3104 -1481.1070   466.1691 H6            1 RES     
   28412 H6        1400.5948 -1481.4061   467.6165 H6            1 RES     
   28413 H6        1401.2563 -1479.9428   466.8370 H6            1 RES     
   28414 H6        1402.4636 -1481.3958   469.2852 H6            1 RES     
   28415 H6        1403.1507 -1479.9245   468.4870 H6            1 RES     
   28416 H6        1401.0356 -1478.6789   469.0036 H6            1 RES     
   28417 H6        1401.7978 -1479.3440   470.4983 H6            1 RES     
   28418 H6        1400.3548 -1480.1610   469.7872 H6            1 RES     
   28419 H6        1402.5793 -1486.0991   466.0736 H6            1 RES     
   28420 H6        1402.2665 -1484.8181   464.8448 H6            1 RES     
   28421 H6        1400.5678 -1487.3114   465.3992 H6            1 RES     
   28422 H6        1400.3173 -1486.0936   464.0519 H6            1 RES     
   28423 H6        1402.5045 -1486.7324   463.0915 H6            1 RES     
   28424 H6        1402.7633 -1487.9104   464.4420 H6            1 RES     
   28425 H6        1400.6893 -1489.1439   463.7850 H6            1 RES     
   28426 H6        1400.4244 -1487.9601   462.4434 H6            1 RES     
   28427 H6        1402.6021 -1488.6663   461.4021 H6            1 RES     
   28428 H6        1402.8858 -1489.7952   462.7780 H6            1 RES     
   28429 H6        1400.8718 -1491.1172   462.1743 H6            1 RES     
   28430 H6        1402.0814 -1491.0311   460.8419 H6            1 RES     
   28431 H6        1400.7317 -1489.2348   459.7161 H6            1 RES     
   28432 H6        1399.4792 -1489.3637   461.0136 H6            1 RES     
   28433 H6        1398.8176 -1490.6572   459.0265 H6            1 RES     
   28434 H6        1400.3337 -1491.6323   459.1199 H6            1 RES     
   28435 H6        1399.0935 -1491.7516   460.4354 H6            1 RES     
   28436 C0        1397.0551 -1497.1434   468.1826 C0            1 RES     
   28437 C1        1397.3277 -1495.9933   467.2047 C1            1 RES     
   28438 C1        1397.6319 -1496.4201   465.9590 C1            1 RES     
   28439 S2        1397.9005 -1495.1546   464.8999 S2            1 RES     
   28440 C1        1397.6003 -1493.9817   466.1018 C1            1 RES     
   28441 C1        1397.2916 -1494.6021   467.3179 C1            1 RES     
   28442 C1        1397.6153 -1497.8380   465.9609 C1            1 RES     
   28443 C1        1397.3249 -1498.3001   467.2124 C1            1 RES     
   28444 C1        1397.3323 -1499.6968   467.2852 C1            1 RES     
   28445 C1        1397.6526 -1500.2780   466.0315 C1            1 RES     
   28446 S2        1397.8768 -1499.0537   464.8630 S2            1 RES     
   28447 H3        1397.0555 -1494.0721   468.2301 H3            1 RES     
   28448 H3        1397.1299 -1500.2395   468.1963 H3            1 RES     
   28449 N4        1397.9551 -1503.4614   464.0337 N4            1 RES     
   28450 C1        1397.7618 -1502.1531   464.3657 C1            1 RES     
   28451 C1        1397.8397 -1501.7182   465.7092 C1            1 RES     
   28452 C1        1398.1439 -1502.6893   466.6803 C1            1 RES     
   28453 N4        1398.3027 -1502.4338   468.0036 N4            1 RES     
   28454 S2        1398.6898 -1503.9201   468.6143 S2            1 RES     
   28455 N4        1398.6766 -1504.9056   467.2892 N4            1 RES     
   28456 C1        1398.3569 -1504.0431   466.2945 C1            1 RES     
   28457 C1        1398.2499 -1504.4118   464.9603 C1            1 RES     
   28458 H5        1397.5334 -1501.4559   463.5712 H5            1 RES     
   28459 C0        1395.5156 -1496.9997   468.4910 C0            1 RES     
   28460 C0        1394.5596 -1498.0111   469.2163 C0            1 RES     
   28461 C0        1393.0713 -1497.6926   468.8204 C0            1 RES     
   28462 C0        1392.3343 -1496.4730   469.4492 C0            1 RES     
   28463 C0        1392.8149 -1495.0461   469.1124 C0            1 RES     
   28464 C0        1392.8752 -1494.7002   467.6121 C0            1 RES     
   28465 C0        1391.5061 -1494.7590   466.9218 C0            1 RES     
   28466 C0        1391.6201 -1494.3519   465.4543 C0            1 RES     
   28467 C0        1394.6322 -1498.0708   470.7689 C0            1 RES     
   28468 C0        1395.7041 -1498.9923   471.3435 C0            1 RES     
   28469 C0        1395.7564 -1498.8709   472.8776 C0            1 RES     
   28470 C0        1396.8655 -1499.7421   473.4880 C0            1 RES     
   28471 C0        1397.0483 -1499.4210   474.9816 C0            1 RES     
   28472 C0        1398.2704 -1500.1079   475.6190 C0            1 RES     
   28473 C0        1399.6054 -1499.5851   475.0518 C0            1 RES     
   28474 C0        1400.8021 -1500.1915   475.7777 C0            1 RES     
   28475 H6        1395.3898 -1496.0130   468.9583 H6            1 RES     
   28476 H6        1395.0786 -1496.9498   467.4693 H6            1 RES     
   28477 H6        1394.7395 -1499.0224   468.7882 H6            1 RES     
   28478 H6        1392.4744 -1498.5762   469.1404 H6            1 RES     
   28479 H6        1392.9682 -1497.6577   467.7146 H6            1 RES     
   28480 H6        1392.3278 -1496.5774   470.5546 H6            1 RES     
   28481 H6        1391.2730 -1496.5451   469.1295 H6            1 RES     
   28482 H6        1393.7983 -1494.8608   469.5751 H6            1 RES     
   28483 H6        1392.1266 -1494.3270   469.6077 H6            1 RES     
   28484 H6        1393.5805 -1495.3711   467.0880 H6            1 RES     
   28485 H6        1393.2692 -1493.6640   467.5225 H6            1 RES     
   28486 H6        1391.0957 -1495.7890   466.9666 H6            1 RES     
   28487 H6        1390.8028 -1494.0662   467.4327 H6            1 RES     
   28488 H6        1392.0112 -1493.3155   465.3688 H6            1 RES     
   28489 H6        1390.6187 -1494.3940   464.9766 H6            1 RES     
   28490 H6        1392.3015 -1495.0437   464.9143 H6            1 RES     
   28491 H6        1393.6843 -1498.5006   471.1646 H6            1 RES     
   28492 H6        1394.7199 -1497.0335   471.1613 H6            1 RES     
   28493 H6        1395.5023 -1500.0432   471.0418 H6            1 RES     
   28494 H6        1396.6625 -1498.6995   470.9369 H6            1 RES     
   28495 H6        1395.9712 -1497.8054   473.1177 H6            1 RES     
   28496 H6        1394.7780 -1499.1439   473.3297 H6            1 RES     
   28497 H6        1396.6423 -1500.8211   473.3436 H6            1 RES     
   28498 H6        1397.8012 -1499.5288   472.9568 H6            1 RES     
   28499 H6        1397.1686 -1498.3238   475.1223 H6            1 RES     
   28500 H6        1396.1285 -1499.7354   475.5223 H6            1 RES     
   28501 H6        1398.1993 -1501.2094   475.4931 H6            1 RES     
   28502 H6        1398.2491 -1499.8779   476.7067 H6            1 RES     
   28503 H6        1399.6504 -1498.4794   475.1673 H6            1 RES     
   28504 H6        1399.7016 -1499.8381   473.9795 H6            1 RES     
   28505 H6        1401.7397 -1499.7856   475.3461 H6            1 RES     
   28506 H6        1400.7693 -1499.9362   476.8586 H6            1 RES     
   28507 H6        1400.8039 -1501.2972   475.6603 H6            1 RES     
   28508 C0        1398.0251 -1496.9225   469.4131 C0            1 RES     
   28509 C0        1399.0055 -1497.9954   469.9932 C0            1 RES     
   28510 C0        1399.2620 -1497.7311   471.5177 C0            1 RES     
   28511 C0        1400.1673 -1496.5673   471.9915 C0            1 RES     
   28512 C0        1399.6489 -1495.1261   471.8096 C0            1 RES     
   28513 C0        1398.2743 -1494.8226   472.4421 C0            1 RES     
   28514 C0        1398.2195 -1495.0581   473.9572 C0            1 RES     
   28515 C0        1396.8453 -1494.6848   474.5097 C0            1 RES     
   28516 C0        1400.3924 -1498.1492   469.3025 C0            1 RES     
   28517 C0        1400.3531 -1498.7277   467.8980 C0            1 RES     
   28518 C0        1401.7482 -1499.0257   467.3470 C0            1 RES     
   28519 C0        1401.6246 -1499.6516   465.9532 C0            1 RES     
   28520 C0        1403.0005 -1499.9754   465.3587 C0            1 RES     
   28521 C0        1402.9094 -1500.6652   463.9869 C0            1 RES     
   28522 C0        1402.2556 -1499.7855   462.9094 C0            1 RES     
   28523 C0        1402.2524 -1500.4879   461.5558 C0            1 RES     
   28524 H6        1398.6227 -1496.0057   469.2692 H6            1 RES     
   28525 H6        1397.3212 -1496.6556   470.2170 H6            1 RES     
   28526 H6        1398.4982 -1498.9790   469.9489 H6            1 RES     
   28527 H6        1399.7566 -1498.6499   471.9012 H6            1 RES     
   28528 H6        1398.3028 -1497.6351   472.0539 H6            1 RES     
   28529 H6        1401.1694 -1496.6558   471.5247 H6            1 RES     
   28530 H6        1400.3266 -1496.7154   473.0812 H6            1 RES     
   28531 H6        1399.6174 -1494.8681   470.7375 H6            1 RES     
   28532 H6        1400.3982 -1494.4427   472.2649 H6            1 RES     
   28533 H6        1397.4823 -1495.4259   471.9651 H6            1 RES     
   28534 H6        1398.0433 -1493.7536   472.2390 H6            1 RES     
   28535 H6        1398.4041 -1496.1287   474.1863 H6            1 RES     
   28536 H6        1398.9935 -1494.4402   474.4611 H6            1 RES     
   28537 H6        1396.6303 -1493.6115   474.3183 H6            1 RES     
   28538 H6        1396.8197 -1494.8630   475.6049 H6            1 RES     
   28539 H6        1396.0551 -1495.3029   474.0310 H6            1 RES     
   28540 H6        1400.9866 -1498.8673   469.9109 H6            1 RES     
   28541 H6        1400.9305 -1497.1767   469.2886 H6            1 RES     
   28542 H6        1399.8036 -1499.6893   467.9370 H6            1 RES     
   28543 H6        1399.8674 -1497.9998   467.2278 H6            1 RES     
   28544 H6        1402.3378 -1498.0852   467.2913 H6            1 RES     
   28545 H6        1402.2705 -1499.7403   468.0225 H6            1 RES     
   28546 H6        1401.0307 -1500.5904   466.0237 H6            1 RES     
   28547 H6        1401.0874 -1498.9343   465.2988 H6            1 RES     
   28548 H6        1403.6000 -1499.0434   465.2683 H6            1 RES     
   28549 H6        1403.5320 -1500.6656   466.0504 H6            1 RES     
   28550 H6        1402.3430 -1501.6174   464.0886 H6            1 RES     
   28551 H6        1403.9450 -1500.9105   463.6645 H6            1 RES     
   28552 H6        1402.8169 -1498.8305   462.8177 H6            1 RES     
   28553 H6        1401.2023 -1499.5608   463.1770 H6            1 RES     
   28554 H6        1401.7755 -1499.8307   460.7983 H6            1 RES     
   28555 H6        1403.2921 -1500.7077   461.2327 H6            1 RES     
   28556 H6        1401.6785 -1501.4372   461.6158 H6            1 RES     
   28557 C0        1397.8901 -1509.7945   464.6241 C0            1 RES     
   28558 C1        1398.2700 -1508.3206   464.4327 C1            1 RES     
   28559 C1        1399.1661 -1508.1310   463.4390 C1            1 RES     
   28560 S2        1399.5496 -1506.5176   463.2265 S2            1 RES     
   28561 C1        1398.4983 -1506.0221   464.4754 C1            1 RES     
   28562 C1        1397.8597 -1507.1322   465.0401 C1            1 RES     
   28563 C1        1399.4878 -1509.3964   462.8860 C1            1 RES     
   28564 C1        1398.8126 -1510.3809   463.5484 C1            1 RES     
   28565 C1        1399.1201 -1511.6590   463.0709 C1            1 RES     
   28566 C1        1400.0703 -1511.6031   462.0192 C1            1 RES     
   28567 S2        1400.4713 -1509.9779   461.6834 S2            1 RES     
   28568 H3        1397.1403 -1507.0775   465.8451 H3            1 RES     
   28569 H3        1398.6855 -1512.5596   463.4781 H3            1 RES     
   28570 N4        1401.9395 -1513.5312   459.3724 N4            1 RES     
   28571 C1        1401.3187 -1512.5192   460.0430 C1            1 RES     
   28572 C1        1400.7130 -1512.7372   461.3023 C1            1 RES     
   28573 C1        1400.7972 -1514.0352   461.8377 C1            1 RES     
   28574 N4        1400.3135 -1514.4022   463.0513 N4            1 RES     
   28575 S2        1400.7456 -1515.9947   463.1457 S2            1 RES     
   28576 N4        1401.5309 -1516.2745   461.7201 N4            1 RES     
   28577 C1        1401.4689 -1515.0630   461.1169 C1            1 RES     
   28578 C1        1402.0295 -1514.7908   459.8763 C1            1 RES     
   28579 H5        1401.2907 -1511.5435   459.5775 H5            1 RES     
   28580 C0        1396.3800 -1509.8410   464.1731 C0            1 RES     
   28581 C0        1395.4773 -1511.0926   463.8876 C0            1 RES     
   28582 C0        1394.2693 -1510.6635   462.9765 C0            1 RES     
   28583 C0        1393.0686 -1509.8773   463.5815 C0            1 RES     
   28584 C0        1393.2924 -1508.4418   464.1008 C0            1 RES     
   28585 C0        1393.8998 -1507.4535   463.0866 C0            1 RES     
   28586 C0        1393.0107 -1507.2250   461.8571 C0            1 RES     
   28587 C0        1393.6366 -1506.1959   460.9182 C0            1 RES     
   28588 C0        1394.8957 -1511.8462   465.1178 C0            1 RES     
   28589 C0        1395.8072 -1512.9032   465.7344 C0            1 RES     
   28590 C0        1395.1728 -1513.4875   467.0099 C0            1 RES     
   28591 C0        1396.0896 -1514.5150   467.6920 C0            1 RES     
   28592 C0        1395.5389 -1514.9000   469.0762 C0            1 RES     
   28593 C0        1396.4993 -1515.7727   469.9054 C0            1 RES     
   28594 C0        1397.7821 -1515.0196   470.3107 C0            1 RES     
   28595 C0        1398.6635 -1515.8612   471.2282 C0            1 RES     
   28596 H6        1395.8372 -1509.1754   464.8588 H6            1 RES     
   28597 H6        1396.4201 -1509.3445   463.1786 H6            1 RES     
   28598 H6        1396.0565 -1511.7966   463.2496 H6            1 RES     
   28599 H6        1393.8221 -1511.6098   462.5969 H6            1 RES     
   28600 H6        1394.6405 -1510.1347   462.0724 H6            1 RES     
   28601 H6        1392.6185 -1510.4704   464.4053 H6            1 RES     
   28602 H6        1392.2943 -1509.8212   462.7872 H6            1 RES     
   28603 H6        1393.9111 -1508.4633   465.0131 H6            1 RES     
   28604 H6        1392.3098 -1508.0403   464.4319 H6            1 RES     
   28605 H6        1394.8979 -1507.7986   462.7597 H6            1 RES     
   28606 H6        1394.0358 -1506.4802   463.6072 H6            1 RES     
   28607 H6        1392.8780 -1508.1731   461.2958 H6            1 RES     
   28608 H6        1392.0147 -1506.8544   462.1830 H6            1 RES     
   28609 H6        1393.7682 -1505.2243   461.4407 H6            1 RES     
   28610 H6        1392.9745 -1506.0403   460.0406 H6            1 RES     
   28611 H6        1394.6256 -1506.5529   460.5592 H6            1 RES     
   28612 H6        1394.0017 -1512.4300   464.8019 H6            1 RES     
   28613 H6        1394.5592 -1511.0968   465.8679 H6            1 RES     
   28614 H6        1396.0088 -1513.7084   464.9946 H6            1 RES     
   28615 H6        1396.7476 -1512.4364   465.9941 H6            1 RES     
   28616 H6        1395.0052 -1512.6412   467.7132 H6            1 RES     
   28617 H6        1394.1909 -1513.9577   466.7838 H6            1 RES     
   28618 H6        1396.2124 -1515.4169   467.0544 H6            1 RES     
   28619 H6        1397.0820 -1514.0632   467.8124 H6            1 RES     
   28620 H6        1395.3234 -1513.9825   469.6678 H6            1 RES     
   28621 H6        1394.5805 -1515.4457   468.9321 H6            1 RES     
   28622 H6        1396.7524 -1516.6995   469.3476 H6            1 RES     
   28623 H6        1395.9642 -1516.0600   470.8369 H6            1 RES     
   28624 H6        1397.5096 -1514.0849   470.8494 H6            1 RES     
   28625 H6        1398.3815 -1514.7581   469.4189 H6            1 RES     
   28626 H6        1399.5695 -1515.2827   471.5017 H6            1 RES     
   28627 H6        1398.1153 -1516.1232   472.1584 H6            1 RES     
   28628 H6        1398.9778 -1516.7939   470.7108 H6            1 RES     
   28629 C0        1398.1625 -1510.1319   466.1458 C0            1 RES     
   28630 C0        1399.0278 -1511.3284   466.6639 C0            1 RES     
   28631 C0        1398.5418 -1511.7763   468.0863 C0            1 RES     
   28632 C0        1398.8550 -1510.9322   469.3464 C0            1 RES     
   28633 C0        1398.1368 -1509.5768   469.5071 C0            1 RES     
   28634 C0        1396.5952 -1509.6235   469.4522 C0            1 RES     
   28635 C0        1395.9600 -1510.5199   470.5232 C0            1 RES     
   28636 C0        1394.4362 -1510.4683   470.4326 C0            1 RES     
   28637 C0        1400.5693 -1511.1216   466.7369 C0            1 RES     
   28638 C0        1401.2687 -1511.0032   465.3933 C0            1 RES     
   28639 C0        1402.7923 -1510.9879   465.5243 C0            1 RES     
   28640 C0        1403.4248 -1510.9185   464.1296 C0            1 RES     
   28641 C0        1404.9563 -1510.9069   464.2073 C0            1 RES     
   28642 C0        1405.6230 -1510.9038   462.8211 C0            1 RES     
   28643 C0        1405.3002 -1509.6471   461.9972 C0            1 RES     
   28644 C0        1406.0390 -1509.6613   460.6632 C0            1 RES     
   28645 H6        1398.5278 -1509.2357   466.6768 H6            1 RES     
   28646 H6        1397.1429 -1510.2735   466.5371 H6            1 RES     
   28647 H6        1398.8372 -1512.1969   466.0036 H6            1 RES     
   28648 H6        1399.0295 -1512.7576   468.2734 H6            1 RES     
   28649 H6        1397.4534 -1511.9550   468.0777 H6            1 RES     
   28650 H6        1399.9497 -1510.7771   469.4331 H6            1 RES     
   28651 H6        1398.5667 -1511.5533   470.2215 H6            1 RES     
   28652 H6        1398.5031 -1508.8626   468.7503 H6            1 RES     
   28653 H6        1398.4357 -1509.1562   470.4918 H6            1 RES     
   28654 H6        1396.2491 -1509.9639   468.4606 H6            1 RES     
   28655 H6        1396.2256 -1508.5839   469.5926 H6            1 RES     
   28656 H6        1396.2785 -1511.5738   470.3800 H6            1 RES     
   28657 H6        1396.2755 -1510.1792   471.5328 H6            1 RES     
   28658 H6        1394.0745 -1509.4296   470.5915 H6            1 RES     
   28659 H6        1393.9912 -1511.1230   471.2105 H6            1 RES     
   28660 H6        1394.0960 -1510.8209   469.4348 H6            1 RES     
   28661 H6        1401.0008 -1512.0234   467.2262 H6            1 RES     
   28662 H6        1400.8142 -1510.2359   467.3624 H6            1 RES     
   28663 H6        1401.0007 -1511.8907   464.7862 H6            1 RES     
   28664 H6        1400.9559 -1510.0622   464.9119 H6            1 RES     
   28665 H6        1403.1075 -1510.1106   466.1295 H6            1 RES     
   28666 H6        1403.1317 -1511.9185   466.0325 H6            1 RES     
   28667 H6        1403.0991 -1511.8010   463.5346 H6            1 RES     
   28668 H6        1403.0629 -1509.9952   463.6318 H6            1 RES     
   28669 H6        1405.2969 -1510.0213   464.7869 H6            1 RES     
   28670 H6        1405.2910 -1511.8230   464.7422 H6            1 RES     
   28671 H6        1405.3113 -1511.8116   462.2587 H6            1 RES     
   28672 H6        1406.7230 -1510.9530   462.9771 H6            1 RES     
   28673 H6        1405.6025 -1508.7413   462.5661 H6            1 RES     
   28674 H6        1404.2130 -1509.5918   461.7818 H6            1 RES     
   28675 H6        1405.7878 -1508.7437   460.0905 H6            1 RES     
   28676 H6        1407.1368 -1509.6874   460.8304 H6            1 RES     
   28677 H6        1405.7378 -1510.5479   460.0655 H6            1 RES     
   28678 C0        1403.1373 -1519.4464   457.3633 C0            1 RES     
   28679 C1        1403.2001 -1518.0370   457.9658 C1            1 RES     
   28680 C1        1404.3598 -1517.3981   457.6950 C1            1 RES     
   28681 S2        1404.4016 -1515.8547   458.3364 S2            1 RES     
   28682 C1        1402.8351 -1516.0017   458.9960 C1            1 RES     
   28683 C1        1402.3014 -1517.2614   458.7008 C1            1 RES     
   28684 C1        1405.1764 -1518.2690   456.9298 C1            1 RES     
   28685 C1        1404.5393 -1519.4618   456.7419 C1            1 RES     
   28686 C1        1405.3144 -1520.3784   456.0243 C1            1 RES     
   28687 C1        1406.5779 -1519.8312   455.6827 C1            1 RES     
   28688 S2        1406.6845 -1518.2212   456.2405 S2            1 RES     
   28689 H3        1401.3180 -1517.5931   459.0037 H3            1 RES     
   28690 H3        1404.9759 -1521.3754   455.7854 H3            1 RES     
   28691 N4        1409.7928 -1520.3108   453.7720 N4            1 RES     
   28692 C1        1408.7252 -1519.7260   454.3863 C1            1 RES     
   28693 C1        1407.7132 -1520.5036   454.9957 C1            1 RES     
   28694 C1        1407.8680 -1521.9011   454.9564 C1            1 RES     
   28695 N4        1407.0174 -1522.7881   455.5318 N4            1 RES     
   28696 S2        1407.7334 -1524.2410   455.2022 S2            1 RES     
   28697 N4        1409.0912 -1523.8278   454.3578 N4            1 RES     
   28698 C1        1409.0051 -1522.4762   454.3214 C1            1 RES     
   28699 C1        1409.9569 -1521.6598   453.7256 C1            1 RES     
   28700 H5        1408.6665 -1518.6461   454.3836 H5            1 RES     
   28701 C0        1402.0205 -1519.3184   456.2577 C0            1 RES     
   28702 C0        1401.6505 -1520.3258   455.1127 C0            1 RES     
   28703 C0        1400.8801 -1519.5588   453.9763 C0            1 RES     
   28704 C0        1399.3873 -1519.1588   454.1703 C0            1 RES     
   28705 C0        1399.0211 -1518.1086   455.2396 C0            1 RES     
   28706 C0        1399.7475 -1516.7550   455.1201 C0            1 RES     
   28707 C0        1399.4385 -1516.0155   453.8116 C0            1 RES     
   28708 C0        1400.1392 -1514.6591   453.7760 C0            1 RES     
   28709 C0        1400.7993 -1521.5673   455.5045 C0            1 RES     
   28710 C0        1401.5851 -1522.7678   456.0239 C0            1 RES     
   28711 C0        1400.6282 -1523.8801   456.4909 C0            1 RES     
   28712 C0        1401.3838 -1525.0837   457.0756 C0            1 RES     
   28713 C0        1400.4066 -1526.0654   457.7453 C0            1 RES     
   28714 C0        1401.1009 -1527.1966   458.5261 C0            1 RES     
   28715 C0        1401.8706 -1526.6792   459.7578 C0            1 RES     
   28716 C0        1402.4512 -1527.8243   460.5815 C0            1 RES     
   28717 H6        1401.0969 -1519.0473   456.7882 H6            1 RES     
   28718 H6        1402.3597 -1518.4250   455.6884 H6            1 RES     
   28719 H6        1402.5948 -1520.6518   454.6224 H6            1 RES     
   28720 H6        1400.8754 -1520.2411   453.0965 H6            1 RES     
   28721 H6        1401.4624 -1518.6700   453.6513 H6            1 RES     
   28722 H6        1398.7853 -1520.0704   454.3691 H6            1 RES     
   28723 H6        1399.0348 -1518.7673   453.1925 H6            1 RES     
   28724 H6        1399.1794 -1518.5262   456.2476 H6            1 RES     
   28725 H6        1397.9267 -1517.9228   455.1764 H6            1 RES     
   28726 H6        1400.8403 -1516.8920   455.2158 H6            1 RES     
   28727 H6        1399.4139 -1516.1193   455.9696 H6            1 RES     
   28728 H6        1399.7861 -1516.6100   452.9415 H6            1 RES     
   28729 H6        1398.3418 -1515.8552   453.7260 H6            1 RES     
   28730 H6        1399.8015 -1514.0260   454.6242 H6            1 RES     
   28731 H6        1399.8964 -1514.1386   452.8257 H6            1 RES     
   28732 H6        1401.2406 -1514.7925   453.8375 H6            1 RES     
   28733 H6        1400.2911 -1521.9654   454.5973 H6            1 RES     
   28734 H6        1400.0087 -1521.2460   456.2182 H6            1 RES     
   28735 H6        1402.2667 -1523.1466   455.2313 H6            1 RES     
   28736 H6        1402.1855 -1522.4475   456.8645 H6            1 RES     
   28737 H6        1399.9820 -1523.4473   457.2873 H6            1 RES     
   28738 H6        1399.9781 -1524.2195   455.6551 H6            1 RES     
   28739 H6        1401.9761 -1525.5967   456.2876 H6            1 RES     
   28740 H6        1402.0923 -1524.7126   457.8264 H6            1 RES     
   28741 H6        1399.7490 -1525.5199   458.4582 H6            1 RES     
   28742 H6        1399.7601 -1526.5087   456.9561 H6            1 RES     
   28743 H6        1401.7792 -1527.7650   457.8544 H6            1 RES     
   28744 H6        1400.3063 -1527.8862   458.8860 H6            1 RES     
   28745 H6        1401.1817 -1526.0956   460.4081 H6            1 RES     
   28746 H6        1402.7108 -1526.0291   459.4504 H6            1 RES     
   28747 H6        1402.9890 -1527.4115   461.4593 H6            1 RES     
   28748 H6        1401.6396 -1528.4910   460.9438 H6            1 RES     
   28749 H6        1403.1671 -1528.4148   459.9690 H6            1 RES     
   28750 C0        1402.8094 -1520.4291   458.5593 C0            1 RES     
   28751 C0        1403.6299 -1521.7105   458.9252 C0            1 RES     
   28752 C0        1402.7078 -1522.7641   459.6321 C0            1 RES     
   28753 C0        1402.2458 -1522.5741   461.0980 C0            1 RES     
   28754 C0        1401.2280 -1521.4547   461.3973 C0            1 RES     
   28755 C0        1399.9156 -1521.5067   460.5870 C0            1 RES     
   28756 C0        1399.1191 -1522.8048   460.7729 C0            1 RES     
   28757 C0        1397.8139 -1522.7525   459.9811 C0            1 RES     
   28758 C0        1404.8964 -1521.5239   459.8113 C0            1 RES     
   28759 C0        1406.0497 -1520.7947   459.1430 C0            1 RES     
   28760 C0        1407.3216 -1520.8056   459.9921 C0            1 RES     
   28761 C0        1408.4498 -1520.0986   459.2323 C0            1 RES     
   28762 C0        1409.7520 -1520.0885   460.0421 C0            1 RES     
   28763 C0        1410.9222 -1519.4436   459.2800 C0            1 RES     
   28764 C0        1410.6913 -1517.9578   458.9611 C0            1 RES     
   28765 C0        1411.9065 -1517.3505   458.2684 C0            1 RES     
   28766 H6        1402.6901 -1519.8618   459.4987 H6            1 RES     
   28767 H6        1401.7861 -1520.7555   458.3162 H6            1 RES     
   28768 H6        1403.9501 -1522.1906   457.9799 H6            1 RES     
   28769 H6        1403.2877 -1523.7126   459.6377 H6            1 RES     
   28770 H6        1401.8030 -1522.9444   459.0274 H6            1 RES     
   28771 H6        1403.1285 -1522.4501   461.7578 H6            1 RES     
   28772 H6        1401.7701 -1523.5303   461.4050 H6            1 RES     
   28773 H6        1401.6995 -1520.4673   461.2569 H6            1 RES     
   28774 H6        1400.9711 -1521.5181   462.4770 H6            1 RES     
   28775 H6        1400.1151 -1521.3697   459.5098 H6            1 RES     
   28776 H6        1399.2859 -1520.6516   460.9181 H6            1 RES     
   28777 H6        1399.7085 -1523.6724   460.4092 H6            1 RES     
   28778 H6        1398.8850 -1522.9503   461.8495 H6            1 RES     
   28779 H6        1397.1836 -1521.9066   460.3303 H6            1 RES     
   28780 H6        1397.2505 -1523.6982   460.1227 H6            1 RES     
   28781 H6        1398.0242 -1522.6235   458.8972 H6            1 RES     
   28782 H6        1405.2800 -1522.5393   460.0573 H6            1 RES     
   28783 H6        1404.6343 -1521.0114   460.7623 H6            1 RES     
   28784 H6        1406.2842 -1521.3177   458.1945 H6            1 RES     
   28785 H6        1405.7572 -1519.7452   458.9760 H6            1 RES     
   28786 H6        1407.1315 -1520.2898   460.9582 H6            1 RES     
   28787 H6        1407.6235 -1521.8575   460.1971 H6            1 RES     
   28788 H6        1408.6276 -1520.6238   458.2672 H6            1 RES     
   28789 H6        1408.1255 -1519.0585   459.0217 H6            1 RES     
   28790 H6        1409.5930 -1519.5532   461.0035 H6            1 RES     
   28791 H6        1410.0351 -1521.1395   460.2712 H6            1 RES     
   28792 H6        1411.1045 -1520.0058   458.3375 H6            1 RES     
   28793 H6        1411.8287 -1519.5329   459.9180 H6            1 RES     
   28794 H6        1410.4986 -1517.4006   459.9033 H6            1 RES     
   28795 H6        1409.8198 -1517.8360   458.2850 H6            1 RES     
   28796 H6        1411.7120 -1516.2791   458.0506 H6            1 RES     
   28797 H6        1412.8008 -1517.4243   458.9230 H6            1 RES     
   28798 H6        1412.1078 -1517.8776   457.3114 H6            1 RES     
   28799 C0        1413.0982 -1524.6492   450.4987 C0            1 RES     
   28800 C1        1412.5622 -1523.6635   451.5450 C1            1 RES     
   28801 C1        1413.5386 -1522.9449   452.1424 C1            1 RES     
   28802 S2        1412.9359 -1521.8579   453.2606 S2            1 RES     
   28803 C1        1411.3223 -1522.3229   452.9600 C1            1 RES     
   28804 C1        1411.2807 -1523.3248   451.9836 C1            1 RES     
   28805 C1        1414.7838 -1523.3568   451.6035 C1            1 RES     
   28806 C1        1414.5905 -1524.3499   450.6868 C1            1 RES     
   28807 C1        1415.7903 -1524.8250   450.1474 C1            1 RES     
   28808 C1        1416.9090 -1524.1538   450.7044 C1            1 RES     
   28809 S2        1416.3827 -1522.9680   451.8141 S2            1 RES     
   28810 H3        1410.3718 -1523.7800   451.6154 H3            1 RES     
   28811 H3        1415.8329 -1525.6136   449.4113 H3            1 RES     
   28812 N4        1420.6429 -1523.6440   450.5833 N4            1 RES     
   28813 C1        1419.3104 -1523.4247   450.7717 C1            1 RES     
   28814 C1        1418.3524 -1524.4167   450.4582 C1            1 RES     
   28815 C1        1418.8365 -1525.6414   449.9640 C1            1 RES     
   28816 N4        1418.0599 -1526.7119   449.6601 N4            1 RES     
   28817 S2        1419.1706 -1527.8419   449.1897 S2            1 RES     
   28818 N4        1420.6172 -1527.0607   449.3465 N4            1 RES     
   28819 C1        1420.2362 -1525.8411   449.7970 C1            1 RES     
   28820 C1        1421.1266 -1524.8220   450.1069 C1            1 RES     
   28821 H5        1419.0036 -1522.4620   451.1572 H5            1 RES     
   28822 C0        1412.5615 -1524.0606   449.1381 C0            1 RES     
   28823 C0        1412.9638 -1524.4495   447.6718 C0            1 RES     
   28824 C0        1412.5909 -1523.2693   446.7016 C0            1 RES     
   28825 C0        1411.1093 -1523.0345   446.2824 C0            1 RES     
   28826 C0        1410.0858 -1522.5900   447.3479 C0            1 RES     
   28827 C0        1410.4494 -1521.3124   448.1288 C0            1 RES     
   28828 C0        1410.5592 -1520.0684   447.2372 C0            1 RES     
   28829 C0        1410.8641 -1518.8269   448.0726 C0            1 RES     
   28830 C0        1412.3488 -1525.7531   447.0870 C0            1 RES     
   28831 C0        1413.1003 -1527.0403   447.4137 C0            1 RES     
   28832 C0        1412.3303 -1528.2651   446.8863 C0            1 RES     
   28833 C0        1413.0283 -1529.5854   447.2484 C0            1 RES     
   28834 C0        1412.1236 -1530.7859   446.9204 C0            1 RES     
   28835 C0        1412.6675 -1532.1318   447.4344 C0            1 RES     
   28836 C0        1412.6941 -1532.2098   448.9740 C0            1 RES     
   28837 C0        1413.1238 -1533.5900   449.4610 C0            1 RES     
   28838 H6        1411.4649 -1524.0799   449.2098 H6            1 RES     
   28839 H6        1412.8872 -1522.9989   449.2007 H6            1 RES     
   28840 H6        1414.0744 -1524.4969   447.6206 H6            1 RES     
   28841 H6        1413.1225 -1523.4799   445.7463 H6            1 RES     
   28842 H6        1413.0264 -1522.3166   447.0722 H6            1 RES     
   28843 H6        1410.7156 -1523.9509   445.7944 H6            1 RES     
   28844 H6        1411.1234 -1522.2513   445.4949 H6            1 RES     
   28845 H6        1409.8954 -1523.4145   448.0546 H6            1 RES     
   28846 H6        1409.1123 -1522.4207   446.8380 H6            1 RES     
   28847 H6        1411.3960 -1521.4529   448.6822 H6            1 RES     
   28848 H6        1409.6462 -1521.1374   448.8780 H6            1 RES     
   28849 H6        1411.3736 -1520.1971   446.4946 H6            1 RES     
   28850 H6        1409.5993 -1519.9118   446.6989 H6            1 RES     
   28851 H6        1410.0584 -1518.6537   448.8177 H6            1 RES     
   28852 H6        1410.9317 -1517.9387   447.4098 H6            1 RES     
   28853 H6        1411.8319 -1518.9486   448.6047 H6            1 RES     
   28854 H6        1412.3847 -1525.7094   445.9750 H6            1 RES     
   28855 H6        1411.2788 -1525.8074   447.3864 H6            1 RES     
   28856 H6        1414.1222 -1527.0042   446.9773 H6            1 RES     
   28857 H6        1413.1917 -1527.1212   448.4883 H6            1 RES     
   28858 H6        1411.3248 -1528.2541   447.3637 H6            1 RES     
   28859 H6        1412.1979 -1528.2047   445.7840 H6            1 RES     
   28860 H6        1414.0023 -1529.6730   446.7204 H6            1 RES     
   28861 H6        1413.2403 -1529.5779   448.3246 H6            1 RES     
   28862 H6        1411.1168 -1530.6368   447.3702 H6            1 RES     
   28863 H6        1411.9992 -1530.8391   445.8163 H6            1 RES     
   28864 H6        1413.6804 -1532.3193   447.0182 H6            1 RES     
   28865 H6        1411.9845 -1532.9275   447.0648 H6            1 RES     
   28866 H6        1411.6774 -1531.9992   449.3741 H6            1 RES     
   28867 H6        1413.4041 -1531.4719   449.3917 H6            1 RES     
   28868 H6        1413.1229 -1533.6066   450.5700 H6            1 RES     
   28869 H6        1412.4194 -1534.3668   449.0938 H6            1 RES     
   28870 H6        1414.1496 -1533.8232   449.1009 H6            1 RES     
   28871 C0        1412.5375 -1526.0737   450.8988 C0            1 RES     
   28872 C0        1413.4036 -1527.3629   451.0907 C0            1 RES     
   28873 C0        1412.5483 -1528.6430   450.7911 C0            1 RES     
   28874 C0        1411.4772 -1529.1471   451.7896 C0            1 RES     
   28875 C0        1410.1948 -1528.3076   451.9611 C0            1 RES     
   28876 C0        1409.4046 -1528.0175   450.6675 C0            1 RES     
   28877 C0        1408.9383 -1529.2771   449.9260 C0            1 RES     
   28878 C0        1408.1219 -1528.9023   448.6907 C0            1 RES     
   28879 C0        1414.0895 -1527.5683   452.4733 C0            1 RES     
   28880 C0        1415.2076 -1526.5896   452.7906 C0            1 RES     
   28881 C0        1415.9608 -1526.9542   454.0706 C0            1 RES     
   28882 C0        1417.1009 -1525.9545   454.2955 C0            1 RES     
   28883 C0        1417.8924 -1526.2820   455.5674 C0            1 RES     
   28884 C0        1419.0851 -1525.3357   455.7869 C0            1 RES     
   28885 C0        1418.6656 -1523.8720   455.9971 C0            1 RES     
   28886 C0        1419.8770 -1522.9894   456.2784 C0            1 RES     
   28887 H6        1411.8997 -1525.9953   451.7963 H6            1 RES     
   28888 H6        1411.8244 -1526.2781   450.0849 H6            1 RES     
   28889 H6        1414.1988 -1527.3562   450.3199 H6            1 RES     
   28890 H6        1413.2780 -1529.4780   450.7118 H6            1 RES     
   28891 H6        1412.0574 -1528.5511   449.8076 H6            1 RES     
   28892 H6        1411.9387 -1529.3147   452.7840 H6            1 RES     
   28893 H6        1411.1585 -1530.1493   451.4307 H6            1 RES     
   28894 H6        1410.4317 -1527.3530   452.4606 H6            1 RES     
   28895 H6        1409.5270 -1528.8582   452.6587 H6            1 RES     
   28896 H6        1410.0037 -1527.4036   449.9724 H6            1 RES     
   28897 H6        1408.5107 -1527.4192   450.9507 H6            1 RES     
   28898 H6        1409.8140 -1529.8728   449.5929 H6            1 RES     
   28899 H6        1408.3114 -1529.8990   450.6006 H6            1 RES     
   28900 H6        1407.2219 -1528.3203   448.9843 H6            1 RES     
   28901 H6        1407.7943 -1529.8224   448.1636 H6            1 RES     
   28902 H6        1408.7350 -1528.2923   447.9924 H6            1 RES     
   28903 H6        1414.5616 -1528.5762   452.4613 H6            1 RES     
   28904 H6        1413.3349 -1527.5474   453.2893 H6            1 RES     
   28905 H6        1415.9394 -1526.6217   451.9591 H6            1 RES     
   28906 H6        1414.7734 -1525.5850   452.9219 H6            1 RES     
   28907 H6        1415.2619 -1526.9356   454.9348 H6            1 RES     
   28908 H6        1416.3875 -1527.9779   453.9728 H6            1 RES     
   28909 H6        1417.7909 -1525.9823   453.4224 H6            1 RES     
   28910 H6        1416.6598 -1524.9393   454.3734 H6            1 RES     
   28911 H6        1417.2181 -1526.2430   456.4505 H6            1 RES     
   28912 H6        1418.2923 -1527.3162   455.4797 H6            1 RES     
   28913 H6        1419.7781 -1525.4066   454.9195 H6            1 RES     
   28914 H6        1419.6274 -1525.6831   456.6935 H6            1 RES     
   28915 H6        1417.9648 -1523.8056   456.8573 H6            1 RES     
   28916 H6        1418.1622 -1523.4775   455.0902 H6            1 RES     
   28917 H6        1419.5449 -1521.9401   456.4260 H6            1 RES     
   28918 H6        1420.3979 -1523.3308   457.1981 H6            1 RES     
   28919 H6        1420.5845 -1523.0221   455.4225 H6            1 RES     
   28920 C0        1425.9515 -1525.9565   447.9504 C0            1 RES     
   28921 C1        1424.8048 -1525.5631   448.8905 C1            1 RES     
   28922 C1        1425.2333 -1525.1702   450.1105 C1            1 RES     
   28923 S2        1423.9737 -1524.7204   451.1137 S2            1 RES     
   28924 C1        1422.8021 -1525.0360   449.9144 C1            1 RES     
   28925 C1        1423.4185 -1525.4887   448.7422 C1            1 RES     
   28926 C1        1426.6479 -1525.2653   450.1343 C1            1 RES     
   28927 C1        1427.1043 -1525.7407   448.9386 C1            1 RES     
   28928 C1        1428.4944 -1525.8930   448.9155 C1            1 RES     
   28929 C1        1429.0758 -1525.5208   450.1548 C1            1 RES     
   28930 S2        1427.8629 -1524.9774   451.2264 S2            1 RES     
   28931 H3        1422.8889 -1525.7488   447.8363 H3            1 RES     
   28932 H3        1429.0316 -1526.2623   448.0549 H3            1 RES     
   28933 N4        1432.2681 -1524.9263   452.0711 N4            1 RES     
   28934 C1        1430.9718 -1524.8464   451.6557 C1            1 RES     
   28935 C1        1430.5038 -1525.6110   450.5619 C1            1 RES     
   28936 C1        1431.4276 -1526.4685   449.9376 C1            1 RES     
   28937 N4        1431.1326 -1527.3033   448.9092 N4            1 RES     
   28938 S2        1432.5713 -1528.0727   448.6446 S2            1 RES     
   28939 N4        1433.5828 -1527.4141   449.7717 N4            1 RES     
   28940 C1        1432.7689 -1526.5391   450.4099 C1            1 RES     
   28941 C1        1433.1730 -1525.7502   451.4785 C1            1 RES     
   28942 H5        1430.3114 -1524.1693   452.1800 H5            1 RES     
   28943 C0        1425.9204 -1524.8287   446.8491 C0            1 RES     
   28944 C0        1426.9868 -1524.5033   445.7447 C0            1 RES     
   28945 C0        1426.7924 -1523.0208   445.2572 C0            1 RES     
   28946 C0        1425.6202 -1522.6556   444.2988 C0            1 RES     
   28947 C0        1424.1680 -1522.7645   444.8084 C0            1 RES     
   28948 C0        1423.8504 -1521.9702   446.0900 C0            1 RES     
   28949 C0        1424.0292 -1520.4554   445.9234 C0            1 RES     
   28950 C0        1423.6459 -1519.7192   447.2053 C0            1 RES     
   28951 C0        1427.0077 -1525.4152   444.4847 C0            1 RES     
   28952 C0        1427.8314 -1526.6935   444.6101 C0            1 RES     
   28953 C0        1427.6738 -1527.5646   443.3502 C0            1 RES     
   28954 C0        1428.4437 -1528.8896   443.4647 C0            1 RES     
   28955 C0        1428.0778 -1529.8324   442.3050 C0            1 RES     
   28956 C0        1428.6547 -1531.2524   442.4540 C0            1 RES     
   28957 C0        1428.0428 -1532.0175   443.6445 C0            1 RES     
   28958 C0        1428.5396 -1533.4586   443.7034 C0            1 RES     
   28959 H6        1424.9365 -1524.9034   446.3650 H6            1 RES     
   28960 H6        1425.9260 -1523.9029   447.4657 H6            1 RES     
   28961 H6        1427.9901 -1524.4970   446.2260 H6            1 RES     
   28962 H6        1427.7125 -1522.7644   444.6851 H6            1 RES     
   28963 H6        1426.7891 -1522.3290   446.1267 H6            1 RES     
   28964 H6        1425.7012 -1523.2610   443.3715 H6            1 RES     
   28965 H6        1425.7806 -1521.6009   443.9898 H6            1 RES     
   28966 H6        1423.8976 -1523.8236   444.9524 H6            1 RES     
   28967 H6        1423.4937 -1522.4052   444.0006 H6            1 RES     
   28968 H6        1424.4759 -1522.3241   446.9300 H6            1 RES     
   28969 H6        1422.7891 -1522.1713   446.3548 H6            1 RES     
   28970 H6        1425.0866 -1520.2157   445.6871 H6            1 RES     
   28971 H6        1423.3820 -1520.0942   445.0949 H6            1 RES     
   28972 H6        1422.5845 -1519.9201   447.4650 H6            1 RES     
   28973 H6        1423.7752 -1518.6260   447.0606 H6            1 RES     
   28974 H6        1424.2944 -1520.0462   448.0462 H6            1 RES     
   28975 H6        1427.5007 -1524.8725   443.6468 H6            1 RES     
   28976 H6        1425.9587 -1525.6234   444.1786 H6            1 RES     
   28977 H6        1428.9009 -1526.4406   444.7785 H6            1 RES     
   28978 H6        1427.4743 -1527.2495   445.4663 H6            1 RES     
   28979 H6        1426.5900 -1527.7936   443.2403 H6            1 RES     
   28980 H6        1428.0117 -1527.0153   442.4445 H6            1 RES     
   28981 H6        1429.5395 -1528.7068   443.4902 H6            1 RES     
   28982 H6        1428.1702 -1529.3648   444.4148 H6            1 RES     
   28983 H6        1426.9719 -1529.9259   442.2260 H6            1 RES     
   28984 H6        1428.4506 -1529.3834   441.3581 H6            1 RES     
   28985 H6        1429.7609 -1531.2083   442.5475 H6            1 RES     
   28986 H6        1428.4040 -1531.8103   441.5253 H6            1 RES     
   28987 H6        1426.9347 -1532.0339   443.5453 H6            1 RES     
   28988 H6        1428.3104 -1531.5323   444.6015 H6            1 RES     
   28989 H6        1428.0719 -1533.9749   444.5665 H6            1 RES     
   28990 H6        1428.2647 -1534.0012   442.7736 H6            1 RES     
   28991 H6        1429.6440 -1533.4803   443.8297 H6            1 RES     
   28992 C0        1425.6304 -1527.4204   447.4428 C0            1 RES     
   28993 C0        1426.6120 -1528.6369   447.5174 C0            1 RES     
   28994 C0        1426.2963 -1529.6623   446.3734 C0            1 RES     
   28995 C0        1425.0564 -1530.5877   446.4418 C0            1 RES     
   28996 C0        1423.6637 -1529.9460   446.2766 C0            1 RES     
   28997 C0        1423.4536 -1529.1205   444.9896 C0            1 RES     
   28998 C0        1423.6604 -1529.9189   443.6960 C0            1 RES     
   28999 C0        1423.3824 -1529.0447   442.4746 C0            1 RES     
   29000 C0        1426.6730 -1529.4296   448.8561 C0            1 RES     
   29001 C0        1427.2825 -1528.6749   450.0256 C0            1 RES     
   29002 C0        1427.4838 -1529.5616   451.2552 C0            1 RES     
   29003 C0        1428.1468 -1528.7459   452.3710 C0            1 RES     
   29004 C0        1428.3761 -1529.5950   453.6271 C0            1 RES     
   29005 C0        1429.1000 -1528.8233   454.7437 C0            1 RES     
   29006 C0        1428.2964 -1527.6228   455.2687 C0            1 RES     
   29007 C0        1429.0255 -1526.9355   456.4183 C0            1 RES     
   29008 H6        1424.6735 -1527.7710   447.8670 H6            1 RES     
   29009 H6        1425.4015 -1527.2510   446.3790 H6            1 RES     
   29010 H6        1427.6324 -1528.2642   447.3019 H6            1 RES     
   29011 H6        1427.1659 -1530.3543   446.3441 H6            1 RES     
   29012 H6        1426.2631 -1529.1468   445.3988 H6            1 RES     
   29013 H6        1425.0772 -1531.1763   447.3815 H6            1 RES     
   29014 H6        1425.1685 -1531.3263   445.6191 H6            1 RES     
   29015 H6        1423.4316 -1529.3154   447.1514 H6            1 RES     
   29016 H6        1422.9150 -1530.7677   446.2870 H6            1 RES     
   29017 H6        1424.1262 -1528.2451   444.9722 H6            1 RES     
   29018 H6        1422.4102 -1528.7355   445.0079 H6            1 RES     
   29019 H6        1424.7084 -1530.2795   443.6307 H6            1 RES     
   29020 H6        1422.9741 -1530.7928   443.6808 H6            1 RES     
   29021 H6        1422.3332 -1528.6792   442.4918 H6            1 RES     
   29022 H6        1423.5388 -1529.6342   441.5474 H6            1 RES     
   29023 H6        1424.0696 -1528.1712   442.4600 H6            1 RES     
   29024 H6        1427.3301 -1530.3121   448.6878 H6            1 RES     
   29025 H6        1425.6624 -1529.7971   449.1376 H6            1 RES     
   29026 H6        1428.2826 -1528.3108   449.7167 H6            1 RES     
   29027 H6        1426.6087 -1527.8485   450.3047 H6            1 RES     
   29028 H6        1426.5020 -1529.9517   451.6006 H6            1 RES     
   29029 H6        1428.1415 -1530.4204   450.9914 H6            1 RES     
   29030 H6        1429.1269 -1528.3602   452.0108 H6            1 RES     
   29031 H6        1427.4871 -1527.8861   452.6089 H6            1 RES     
   29032 H6        1427.4029 -1529.9750   454.0071 H6            1 RES     
   29033 H6        1429.0085 -1530.4684   453.3542 H6            1 RES     
   29034 H6        1430.0906 -1528.4784   454.3728 H6            1 RES     
   29035 H6        1429.2715 -1529.5306   455.5845 H6            1 RES     
   29036 H6        1427.3031 -1527.9686   455.6284 H6            1 RES     
   29037 H6        1428.1479 -1526.8725   454.4647 H6            1 RES     
   29038 H6        1428.4233 -1526.0742   456.7770 H6            1 RES     
   29039 H6        1429.1713 -1527.6439   457.2613 H6            1 RES     
   29040 H6        1430.0148 -1526.5614   456.0781 H6            1 RES     
   29041 C0        1438.5734 -1525.6765   451.6948 C0            1 RES     
   29042 C1        1437.0790 -1525.7769   452.0265 C1            1 RES     
   29043 C1        1436.8420 -1525.9686   453.3431 C1            1 RES     
   29044 S2        1435.2087 -1526.0498   453.6911 S2            1 RES     
   29045 C1        1434.7693 -1525.8157   452.0594 C1            1 RES     
   29046 C1        1435.9131 -1525.6752   451.2650 C1            1 RES     
   29047 C1        1438.0904 -1526.0318   454.0127 C1            1 RES     
   29048 C1        1439.1097 -1525.9045   453.1134 C1            1 RES     
   29049 C1        1440.3701 -1525.9982   453.7122 C1            1 RES     
   29050 C1        1440.2634 -1526.2135   455.1103 C1            1 RES     
   29051 S2        1438.6197 -1526.2413   455.5708 S2            1 RES     
   29052 H3        1435.8969 -1525.5095   450.1968 H3            1 RES     
   29053 H3        1441.2926 -1525.9260   453.1559 H3            1 RES     
   29054 N4        1442.0976 -1526.4771   458.3941 N4            1 RES     
   29055 C1        1441.1224 -1526.2476   457.4690 C1            1 RES     
   29056 C1        1441.3596 -1526.4454   456.0889 C1            1 RES     
   29057 C1        1442.6356 -1526.9065   455.7177 C1            1 RES     
   29058 N4        1443.0129 -1527.1925   454.4460 N4            1 RES     
   29059 S2        1444.5651 -1527.7261   454.6412 S2            1 RES     
   29060 N4        1444.8137 -1527.6254   456.2707 N4            1 RES     
   29061 C1        1443.6236 -1527.1524   456.7129 C1            1 RES     
   29062 C1        1443.3355 -1526.9230   458.0515 C1            1 RES     
   29063 H5        1440.1619 -1525.8960   457.8202 H5            1 RES     
   29064 C0        1438.7457 -1524.1736   451.2504 C0            1 RES     
   29065 C0        1440.0690 -1523.3597   451.0279 C0            1 RES     
   29066 C0        1439.7537 -1521.8218   451.1223 C0            1 RES     
   29067 C0        1439.0497 -1521.0896   449.9415 C0            1 RES     
   29068 C0        1437.5905 -1521.4503   449.5935 C0            1 RES     
   29069 C0        1436.5801 -1521.3288   450.7505 C0            1 RES     
   29070 C0        1436.4470 -1519.8988   451.2905 C0            1 RES     
   29071 C0        1435.3929 -1519.8308   452.3934 C0            1 RES     
   29072 C0        1440.8388 -1523.6025   449.6983 C0            1 RES     
   29073 C0        1441.8091 -1524.7802   449.7044 C0            1 RES     
   29074 C0        1442.4133 -1524.9907   448.3038 C0            1 RES     
   29075 C0        1443.3523 -1526.2064   448.2571 C0            1 RES     
   29076 C0        1443.7491 -1526.5309   446.8064 C0            1 RES     
   29077 C0        1444.5274 -1527.8512   446.6564 C0            1 RES     
   29078 C0        1443.6692 -1529.0857   446.9979 C0            1 RES     
   29079 C0        1444.4207 -1530.3859   446.7302 C0            1 RES     
   29080 H6        1438.1095 -1524.0437   450.3637 H6            1 RES     
   29081 H6        1438.2688 -1523.6268   452.0936 H6            1 RES     
   29082 H6        1440.7396 -1523.5489   451.8954 H6            1 RES     
   29083 H6        1440.7395 -1521.3135   451.2195 H6            1 RES     
   29084 H6        1439.2172 -1521.5982   452.0693 H6            1 RES     
   29085 H6        1439.6580 -1521.2083   449.0202 H6            1 RES     
   29086 H6        1439.0704 -1520.0058   450.1836 H6            1 RES     
   29087 H6        1437.5449 -1522.4659   449.1669 H6            1 RES     
   29088 H6        1437.2590 -1520.7800   448.7705 H6            1 RES     
   29089 H6        1436.8541 -1522.0100   451.5770 H6            1 RES     
   29090 H6        1435.5883 -1521.6521   450.3648 H6            1 RES     
   29091 H6        1437.4142 -1519.5541   451.7114 H6            1 RES     
   29092 H6        1436.1475 -1519.2169   450.4653 H6            1 RES     
   29093 H6        1434.4031 -1520.1516   452.0038 H6            1 RES     
   29094 H6        1435.3075 -1518.7876   452.7640 H6            1 RES     
   29095 H6        1435.6802 -1520.4878   453.2421 H6            1 RES     
   29096 H6        1441.4964 -1522.7285   449.4897 H6            1 RES     
   29097 H6        1440.1018 -1523.6737   448.8681 H6            1 RES     
   29098 H6        1442.6119 -1524.6064   450.4537 H6            1 RES     
   29099 H6        1441.2658 -1525.6712   449.9881 H6            1 RES     
   29100 H6        1441.5676 -1525.1700   447.6025 H6            1 RES     
   29101 H6        1442.9625 -1524.0837   447.9693 H6            1 RES     
   29102 H6        1444.2554 -1526.0298   448.8802 H6            1 RES     
   29103 H6        1442.8229 -1527.0659   448.6864 H6            1 RES     
   29104 H6        1442.8386 -1526.6038   446.1709 H6            1 RES     
   29105 H6        1444.3700 -1525.6938   446.4178 H6            1 RES     
   29106 H6        1445.4436 -1527.8289   447.2843 H6            1 RES     
   29107 H6        1444.8352 -1527.9345   445.5911 H6            1 RES     
   29108 H6        1442.7471 -1529.0808   446.3753 H6            1 RES     
   29109 H6        1443.3813 -1529.0798   448.0657 H6            1 RES     
   29110 H6        1443.7684 -1531.2472   446.9809 H6            1 RES     
   29111 H6        1444.7042 -1530.4556   445.6582 H6            1 RES     
   29112 H6        1445.3371 -1530.4371   447.3577 H6            1 RES     
   29113 C0        1438.8563 -1526.7595   450.5764 C0            1 RES     
   29114 C0        1439.9713 -1527.8555   450.6432 C0            1 RES     
   29115 C0        1440.4249 -1528.2596   449.1973 C0            1 RES     
   29116 C0        1439.5326 -1529.1440   448.2917 C0            1 RES     
   29117 C0        1438.2335 -1528.5289   447.7324 C0            1 RES     
   29118 C0        1438.4001 -1527.2157   446.9390 C0            1 RES     
   29119 C0        1439.3198 -1527.3379   445.7171 C0            1 RES     
   29120 C0        1439.3877 -1526.0125   444.9609 C0            1 RES     
   29121 C0        1439.6447 -1529.1662   451.4175 C0            1 RES     
   29122 C0        1439.5014 -1529.0083   452.9219 C0            1 RES     
   29123 C0        1439.3659 -1530.3503   453.6424 C0            1 RES     
   29124 C0        1439.2776 -1530.1124   455.1543 C0            1 RES     
   29125 C0        1439.1464 -1531.4322   455.9239 C0            1 RES     
   29126 C0        1439.1213 -1531.2326   457.4489 C0            1 RES     
   29127 C0        1437.9111 -1530.4180   457.9327 C0            1 RES     
   29128 C0        1437.8966 -1530.3083   459.4537 C0            1 RES     
   29129 H6        1437.9236 -1527.2857   450.3090 H6            1 RES     
   29130 H6        1439.0677 -1526.1326   449.6961 H6            1 RES     
   29131 H6        1440.8658 -1527.4024   451.1137 H6            1 RES     
   29132 H6        1441.3616 -1528.8435   449.3303 H6            1 RES     
   29133 H6        1440.6872 -1527.3600   448.6153 H6            1 RES     
   29134 H6        1439.2918 -1530.0932   448.8121 H6            1 RES     
   29135 H6        1440.1554 -1529.4280   447.4163 H6            1 RES     
   29136 H6        1437.5095 -1528.3675   448.5489 H6            1 RES     
   29137 H6        1437.7703 -1529.2834   447.0601 H6            1 RES     
   29138 H6        1438.7871 -1526.4120   447.5895 H6            1 RES     
   29139 H6        1437.3893 -1526.9045   446.5946 H6            1 RES     
   29140 H6        1440.3488 -1527.6059   446.0363 H6            1 RES     
   29141 H6        1438.9344 -1528.1259   445.0349 H6            1 RES     
   29142 H6        1438.3769 -1525.7182   444.6053 H6            1 RES     
   29143 H6        1440.0581 -1526.1152   444.0823 H6            1 RES     
   29144 H6        1439.7867 -1525.2113   445.6200 H6            1 RES     
   29145 H6        1440.5000 -1529.8619   451.2647 H6            1 RES     
   29146 H6        1438.7297 -1529.6443   451.0054 H6            1 RES     
   29147 H6        1440.4196 -1528.5211   453.3059 H6            1 RES     
   29148 H6        1438.5977 -1528.4130   453.1318 H6            1 RES     
   29149 H6        1438.4543 -1530.8767   453.2858 H6            1 RES     
   29150 H6        1440.2566 -1530.9817   453.4242 H6            1 RES     
   29151 H6        1440.1950 -1529.5832   455.4967 H6            1 RES     
   29152 H6        1438.3958 -1529.4684   455.3516 H6            1 RES     
   29153 H6        1438.2251 -1531.9652   455.6024 H6            1 RES     
   29154 H6        1440.0224 -1532.0731   455.6805 H6            1 RES     
   29155 H6        1440.0622 -1530.7348   457.7723 H6            1 RES     
   29156 H6        1439.0823 -1532.2395   457.9191 H6            1 RES     
   29157 H6        1436.9728 -1530.9116   457.5989 H6            1 RES     
   29158 H6        1437.9443 -1529.3888   457.5190 H6            1 RES     
   29159 H6        1437.0135 -1529.7163   459.7742 H6            1 RES     
   29160 H6        1437.8345 -1531.3178   459.9128 H6            1 RES     
   29161 H6        1438.8164 -1529.7984   459.8118 H6            1 RES     
   29162 C0        1447.9442 -1526.8318   460.8743 C0            1 RES     
   29163 C1        1446.5217 -1527.1055   460.3694 C1            1 RES     
   29164 C1        1445.8012 -1527.8772   461.2132 C1            1 RES     
   29165 S2        1444.2459 -1528.1443   460.6610 S2            1 RES     
   29166 C1        1444.4991 -1527.2076   459.2578 C1            1 RES     
   29167 C1        1445.8022 -1526.6971   459.2447 C1            1 RES     
   29168 C1        1446.6226 -1528.2078   462.3207 C1            1 RES     
   29169 C1        1447.8647 -1527.6644   462.1598 C1            1 RES     
   29170 C1        1448.7339 -1527.9899   463.2060 C1            1 RES     
   29171 C1        1448.0983 -1528.8165   464.1678 C1            1 RES     
   29172 S2        1446.4734 -1529.0870   463.7195 S2            1 RES     
   29173 H3        1446.2022 -1526.0667   458.4628 H3            1 RES     
   29174 H3        1449.7589 -1527.6530   463.2458 H3            1 RES     
   29175 N4        1448.3692 -1530.4946   467.5335 N4            1 RES     
   29176 C1        1447.8555 -1529.8939   466.4224 C1            1 RES     
   29177 C1        1448.6957 -1529.4408   465.3788 C1            1 RES     
   29178 C1        1450.0776 -1529.6550   465.5302 C1            1 RES     
   29179 N4        1451.0151 -1529.3263   464.6058 N4            1 RES     
   29180 S2        1452.4151 -1529.8549   465.3076 S2            1 RES     
   29181 N4        1451.9166 -1530.4963   466.7455 N4            1 RES     
   29182 C1        1450.5767 -1530.3017   466.6962 C1            1 RES     
   29183 C1        1449.7022 -1530.7091   467.6946 C1            1 RES     
   29184 H5        1446.7837 -1529.7612   466.3664 H5            1 RES     
   29185 C0        1447.9262 -1525.2869   461.1887 C0            1 RES     
   29186 C0        1448.9833 -1524.4304   461.9709 C0            1 RES     
   29187 C0        1448.3023 -1523.1091   462.4843 C0            1 RES     
   29188 C0        1448.0145 -1521.9383   461.4982 C0            1 RES     
   29189 C0        1446.9731 -1522.1359   460.3770 C0            1 RES     
   29190 C0        1445.5704 -1522.5738   460.8403 C0            1 RES     
   29191 C0        1444.8849 -1521.5460   461.7502 C0            1 RES     
   29192 C0        1443.4796 -1522.0082   462.1292 C0            1 RES     
   29193 C0        1450.2781 -1524.0281   461.2085 C0            1 RES     
   29194 C0        1451.4031 -1525.0587   461.2310 C0            1 RES     
   29195 C0        1452.5756 -1524.5993   460.3449 C0            1 RES     
   29196 C0        1453.7047 -1525.6407   460.2963 C0            1 RES     
   29197 C0        1454.7444 -1525.2650   459.2261 C0            1 RES     
   29198 C0        1455.8019 -1526.3566   458.9779 C0            1 RES     
   29199 C0        1455.2006 -1527.6314   458.3530 C0            1 RES     
   29200 C0        1456.2798 -1528.6524   458.0072 C0            1 RES     
   29201 H6        1447.7159 -1524.7847   460.2340 H6            1 RES     
   29202 H6        1447.0217 -1525.1916   461.8289 H6            1 RES     
   29203 H6        1449.2459 -1524.9761   462.9044 H6            1 RES     
   29204 H6        1449.0014 -1522.6773   463.2356 H6            1 RES     
   29205 H6        1447.3783 -1523.3502   463.0526 H6            1 RES     
   29206 H6        1448.9653 -1521.6137   461.0255 H6            1 RES     
   29207 H6        1447.6722 -1521.0810   462.1158 H6            1 RES     
   29208 H6        1447.3558 -1522.8495   459.6288 H6            1 RES     
   29209 H6        1446.8736 -1521.1737   459.8286 H6            1 RES     
   29210 H6        1445.6207 -1523.5487   461.3593 H6            1 RES     
   29211 H6        1444.9444 -1522.7103   459.9312 H6            1 RES     
   29212 H6        1445.4692 -1521.4069   462.6833 H6            1 RES     
   29213 H6        1444.8115 -1520.5717   461.2201 H6            1 RES     
   29214 H6        1442.8565 -1522.1406   461.2190 H6            1 RES     
   29215 H6        1442.9997 -1521.2476   462.7804 H6            1 RES     
   29216 H6        1443.5264 -1522.9712   462.6814 H6            1 RES     
   29217 H6        1450.7334 -1523.1394   461.7014 H6            1 RES     
   29218 H6        1450.0036 -1523.7329   460.1717 H6            1 RES     
   29219 H6        1451.7450 -1525.2243   462.2759 H6            1 RES     
   29220 H6        1451.0197 -1525.9939   460.8462 H6            1 RES     
   29221 H6        1452.1771 -1524.4614   459.3148 H6            1 RES     
   29222 H6        1452.9818 -1523.6268   460.6990 H6            1 RES     
   29223 H6        1454.1872 -1525.7444   461.2920 H6            1 RES     
   29224 H6        1453.2643 -1526.6132   460.0445 H6            1 RES     
   29225 H6        1454.2361 -1525.0634   458.2570 H6            1 RES     
   29226 H6        1455.2529 -1524.3287   459.5457 H6            1 RES     
   29227 H6        1456.3304 -1526.5997   459.9244 H6            1 RES     
   29228 H6        1456.5429 -1525.9421   458.2598 H6            1 RES     
   29229 H6        1454.6581 -1527.3665   457.4183 H6            1 RES     
   29230 H6        1454.4943 -1528.1155   459.0529 H6            1 RES     
   29231 H6        1455.8082 -1529.5487   457.5549 H6            1 RES     
   29232 H6        1456.9992 -1528.2233   457.2773 H6            1 RES     
   29233 H6        1456.8262 -1528.9609   458.9251 H6            1 RES     
   29234 C0        1448.9236 -1527.2853   459.7172 C0            1 RES     
   29235 C0        1450.1299 -1528.2673   459.8891 C0            1 RES     
   29236 C0        1451.2362 -1527.9634   458.8197 C0            1 RES     
   29237 C0        1451.0512 -1528.3628   457.3349 C0            1 RES     
   29238 C0        1450.0075 -1527.5911   456.5018 C0            1 RES     
   29239 C0        1450.1778 -1526.0576   456.4665 C0            1 RES     
   29240 C0        1451.5291 -1525.5931   455.9080 C0            1 RES     
   29241 C0        1451.5945 -1524.0678   455.8586 C0            1 RES     
   29242 C0        1449.8274 -1529.7935   459.8326 C0            1 RES     
   29243 C0        1449.0259 -1530.3362   461.0038 C0            1 RES     
   29244 C0        1448.9206 -1531.8618   460.9861 C0            1 RES     
   29245 C0        1448.1451 -1532.3353   462.2207 C0            1 RES     
   29246 C0        1448.0174 -1533.8631   462.2520 C0            1 RES     
   29247 C0        1447.3006 -1534.3752   463.5129 C0            1 RES     
   29248 C0        1445.8442 -1533.8953   463.6182 C0            1 RES     
   29249 C0        1445.1598 -1534.4857   464.8464 C0            1 RES     
   29250 H6        1448.3474 -1527.6548   458.8513 H6            1 RES     
   29251 H6        1449.3331 -1526.3234   459.3710 H6            1 RES     
   29252 H6        1450.6039 -1528.0556   460.8675 H6            1 RES     
   29253 H6        1452.1368 -1528.5228   459.1542 H6            1 RES     
   29254 H6        1451.4985 -1526.8921   458.8374 H6            1 RES     
   29255 H6        1450.8456 -1529.4500   457.2602 H6            1 RES     
   29256 H6        1452.0345 -1528.2059   456.8414 H6            1 RES     
   29257 H6        1448.9900 -1527.8329   456.8526 H6            1 RES     
   29258 H6        1450.0676 -1527.9704   455.4586 H6            1 RES     
   29259 H6        1450.0487 -1525.6263   457.4746 H6            1 RES     
   29260 H6        1449.3669 -1525.6475   455.8250 H6            1 RES     
   29261 H6        1452.3563 -1525.9529   456.5552 H6            1 RES     
   29262 H6        1451.6693 -1525.9959   454.8818 H6            1 RES     
   29263 H6        1450.7924 -1523.6677   455.2017 H6            1 RES     
   29264 H6        1452.5775 -1523.7468   455.4557 H6            1 RES     
   29265 H6        1451.4727 -1523.6424   456.8783 H6            1 RES     
   29266 H6        1450.8049 -1530.3252   459.8604 H6            1 RES     
   29267 H6        1449.3166 -1530.0543   458.8805 H6            1 RES     
   29268 H6        1449.5493 -1530.0545   461.9391 H6            1 RES     
   29269 H6        1448.0058 -1529.9210   460.9587 H6            1 RES     
   29270 H6        1448.4007 -1532.1907   460.0604 H6            1 RES     
   29271 H6        1449.9415 -1532.3057   461.0045 H6            1 RES     
   29272 H6        1448.6754 -1531.9974   463.1391 H6            1 RES     
   29273 H6        1447.1378 -1531.8705   462.1951 H6            1 RES     
   29274 H6        1447.4757 -1534.2139   461.3467 H6            1 RES     
   29275 H6        1449.0384 -1534.3045   462.2398 H6            1 RES     
   29276 H6        1447.8670 -1534.0561   464.4157 H6            1 RES     
   29277 H6        1447.3062 -1535.4866   463.4748 H6            1 RES     
   29278 H6        1445.2836 -1534.2059   462.7100 H6            1 RES     
   29279 H6        1445.8043 -1532.7899   463.7064 H6            1 RES     
   29280 H6        1444.1115 -1534.1229   464.8968 H6            1 RES     
   29281 H6        1445.1506 -1535.5948   464.7873 H6            1 RES     
   29282 H6        1445.6901 -1534.1720   465.7709 H6            1 RES     
   29283 C0        1452.5085 -1531.7990   472.1839 C0            1 RES     
   29284 C1        1451.5451 -1531.8472   470.9910 C1            1 RES     
   29285 C1        1450.7408 -1532.9332   471.0053 C1            1 RES     
   29286 S2        1449.6799 -1532.9571   469.7133 S2            1 RES     
   29287 C1        1450.2743 -1531.4817   469.0966 C1            1 RES     
   29288 C1        1451.2969 -1530.9908   469.9165 C1            1 RES     
   29289 C1        1451.0668 -1533.7101   472.1458 C1            1 RES     
   29290 C1        1452.0911 -1533.1244   472.8327 C1            1 RES     
   29291 C1        1452.4837 -1533.8679   473.9504 C1            1 RES     
   29292 C1        1451.7165 -1535.0544   474.0773 C1            1 RES     
   29293 S2        1450.5516 -1535.1299   472.8316 S2            1 RES     
   29294 H3        1451.8285 -1530.0661   469.7405 H3            1 RES     
   29295 H3        1453.2822 -1533.5621   474.6096 H3            1 RES     
   29296 N4        1450.9232 -1538.0664   476.2023 N4            1 RES     
   29297 C1        1450.8033 -1537.0401   475.3125 C1            1 RES     
   29298 C1        1451.8726 -1536.1450   475.0770 C1            1 RES     
   29299 C1        1453.0666 -1536.3728   475.7848 C1            1 RES     
   29300 N4        1454.2000 -1535.6404   475.6420 N4            1 RES     
   29301 S2        1455.2508 -1536.3971   476.6693 S2            1 RES     
   29302 N4        1454.3572 -1537.6306   477.3076 N4            1 RES     
   29303 C1        1453.1614 -1537.4654   476.6928 C1            1 RES     
   29304 C1        1452.0703 -1538.3000   476.8939 C1            1 RES     
   29305 H5        1449.8591 -1536.9209   474.7989 H5            1 RES     
   29306 C0        1451.9921 -1530.5641   473.0170 C0            1 RES     
   29307 C0        1452.3799 -1530.1299   474.4744 C0            1 RES     
   29308 C0        1451.2529 -1529.1995   475.0554 C0            1 RES     
   29309 C0        1451.1419 -1527.7163   474.5932 C0            1 RES     
   29310 C0        1450.7550 -1527.4092   473.1315 C0            1 RES     
   29311 C0        1449.4369 -1528.0413   472.6443 C0            1 RES     
   29312 C0        1448.2074 -1527.5519   473.4210 C0            1 RES     
   29313 C0        1446.9287 -1528.1675   472.8572 C0            1 RES     
   29314 C0        1453.7391 -1529.3969   474.6608 C0            1 RES     
   29315 C0        1454.9574 -1530.3004   474.8280 C0            1 RES     
   29316 C0        1456.2488 -1529.4633   474.8799 C0            1 RES     
   29317 C0        1457.5034 -1530.3441   474.9892 C0            1 RES     
   29318 C0        1458.7767 -1529.5014   474.7999 C0            1 RES     
   29319 C0        1460.0654 -1530.3383   474.6985 C0            1 RES     
   29320 C0        1460.1084 -1531.2061   473.4248 C0            1 RES     
   29321 C0        1461.4408 -1531.9355   473.2846 C0            1 RES     
   29322 H6        1452.0943 -1529.6894   472.3595 H6            1 RES     
   29323 H6        1450.9073 -1530.7892   473.1164 H6            1 RES     
   29324 H6        1452.3426 -1531.0326   475.1241 H6            1 RES     
   29325 H6        1451.4421 -1529.1383   476.1509 H6            1 RES     
   29326 H6        1450.2617 -1529.6926   474.9592 H6            1 RES     
   29327 H6        1452.0961 -1527.1914   474.8096 H6            1 RES     
   29328 H6        1450.3768 -1527.2390   475.2416 H6            1 RES     
   29329 H6        1451.5766 -1527.6985   472.4556 H6            1 RES     
   29330 H6        1450.6722 -1526.3056   473.0238 H6            1 RES     
   29331 H6        1449.4923 -1529.1440   472.7002 H6            1 RES     
   29332 H6        1449.3085 -1527.7661   471.5744 H6            1 RES     
   29333 H6        1448.2887 -1527.8365   474.4905 H6            1 RES     
   29334 H6        1448.1368 -1526.4452   473.3450 H6            1 RES     
   29335 H6        1446.8022 -1527.8882   471.7893 H6            1 RES     
   29336 H6        1446.0521 -1527.7948   473.4278 H6            1 RES     
   29337 H6        1446.9640 -1529.2748   472.9419 H6            1 RES     
   29338 H6        1453.7164 -1528.8171   475.6111 H6            1 RES     
   29339 H6        1453.8694 -1528.6712   473.8278 H6            1 RES     
   29340 H6        1454.8518 -1530.9127   475.7501 H6            1 RES     
   29341 H6        1455.0081 -1530.9689   473.9795 H6            1 RES     
   29342 H6        1456.3052 -1528.8836   473.9314 H6            1 RES     
   29343 H6        1456.2222 -1528.7471   475.7299 H6            1 RES     
   29344 H6        1457.5268 -1530.8758   475.9648 H6            1 RES     
   29345 H6        1457.4567 -1531.1074   474.2028 H6            1 RES     
   29346 H6        1458.6962 -1528.8950   473.8704 H6            1 RES     
   29347 H6        1458.8628 -1528.7995   475.6585 H6            1 RES     
   29348 H6        1460.1832 -1530.9710   475.6041 H6            1 RES     
   29349 H6        1460.9192 -1529.6271   474.6551 H6            1 RES     
   29350 H6        1459.9684 -1530.5596   472.5301 H6            1 RES     
   29351 H6        1459.3093 -1531.9703   473.4440 H6            1 RES     
   29352 H6        1461.4338 -1532.5408   472.3552 H6            1 RES     
   29353 H6        1462.2772 -1531.2064   473.2271 H6            1 RES     
   29354 H6        1461.6018 -1532.6132   474.1513 H6            1 RES     
   29355 C0        1453.9631 -1531.6577   471.5775 C0            1 RES     
   29356 C0        1455.1774 -1532.5835   471.9202 C0            1 RES     
   29357 C0        1456.5257 -1531.8037   471.7361 C0            1 RES     
   29358 C0        1457.0895 -1531.4926   470.3276 C0            1 RES     
   29359 C0        1456.3479 -1530.4517   469.4643 C0            1 RES     
   29360 C0        1456.1471 -1529.0645   470.1103 C0            1 RES     
   29361 C0        1457.4544 -1528.3669   470.5080 C0            1 RES     
   29362 C0        1457.1700 -1526.9831   471.0888 C0            1 RES     
   29363 C0        1455.2999 -1533.9257   471.1407 C0            1 RES     
   29364 C0        1454.2314 -1534.9575   471.4607 C0            1 RES     
   29365 C0        1454.5096 -1536.3121   470.8077 C0            1 RES     
   29366 C0        1453.4204 -1537.3103   471.2167 C0            1 RES     
   29367 C0        1453.6588 -1538.6895   470.5904 C0            1 RES     
   29368 C0        1452.6189 -1539.7327   471.0338 C0            1 RES     
   29369 C0        1451.1878 -1539.3857   470.5934 C0            1 RES     
   29370 C0        1450.2087 -1540.4831   470.9967 C0            1 RES     
   29371 H6        1453.9151 -1531.6088   470.4758 H6            1 RES     
   29372 H6        1454.2392 -1530.6342   471.8756 H6            1 RES     
   29373 H6        1455.1258 -1532.8264   472.9996 H6            1 RES     
   29374 H6        1457.3034 -1532.4331   472.2207 H6            1 RES     
   29375 H6        1456.4928 -1530.8505   472.2903 H6            1 RES     
   29376 H6        1457.1999 -1532.4329   469.7501 H6            1 RES     
   29377 H6        1458.1207 -1531.1071   470.4790 H6            1 RES     
   29378 H6        1455.3674 -1530.8491   469.1517 H6            1 RES     
   29379 H6        1456.9334 -1530.3167   468.5291 H6            1 RES     
   29380 H6        1455.5038 -1529.1388   471.0045 H6            1 RES     
   29381 H6        1455.6136 -1528.4273   469.3711 H6            1 RES     
   29382 H6        1457.9878 -1528.9615   471.2791 H6            1 RES     
   29383 H6        1458.1083 -1528.2588   469.6160 H6            1 RES     
   29384 H6        1456.6530 -1526.3476   470.3380 H6            1 RES     
   29385 H6        1458.1236 -1526.4922   471.3743 H6            1 RES     
   29386 H6        1456.5296 -1527.0676   471.9934 H6            1 RES     
   29387 H6        1456.2684 -1534.3900   471.4326 H6            1 RES     
   29388 H6        1455.3198 -1533.7393   470.0450 H6            1 RES     
   29389 H6        1454.2246 -1535.1173   472.5573 H6            1 RES     
   29390 H6        1453.2607 -1534.5901   471.0896 H6            1 RES     
   29391 H6        1454.5265 -1536.1986   469.7021 H6            1 RES     
   29392 H6        1455.4992 -1536.6929   471.1472 H6            1 RES     
   29393 H6        1453.4135 -1537.4122   472.3251 H6            1 RES     
   29394 H6        1452.4408 -1536.9072   470.8862 H6            1 RES     
   29395 H6        1453.6532 -1538.6054   469.4818 H6            1 RES     
   29396 H6        1454.6608 -1539.0543   470.9070 H6            1 RES     
   29397 H6        1452.6546 -1539.8436   472.1402 H6            1 RES     
   29398 H6        1452.9041 -1540.7063   470.5783 H6            1 RES     
   29399 H6        1451.1573 -1539.2648   469.4889 H6            1 RES     
   29400 H6        1450.8527 -1538.4409   471.0693 H6            1 RES     
   29401 H6        1449.1852 -1540.2064   470.6665 H6            1 RES     
   29402 H6        1450.4893 -1541.4455   470.5184 H6            1 RES     
   29403 H6        1450.2049 -1540.6093   472.1005 H6            1 RES     
   29404 C0        1452.8751 -1541.2378   481.3591 C0            1 RES     
   29405 C1        1452.5513 -1540.7633   479.9366 C1            1 RES     
   29406 C1        1452.1007 -1541.7565   479.1384 C1            1 RES     
   29407 S2        1451.7281 -1541.2178   477.6001 S2            1 RES     
   29408 C1        1452.1585 -1539.6099   477.9739 C1            1 RES     
   29409 C1        1452.5872 -1539.5196   479.3032 C1            1 RES     
   29410 C1        1452.0860 -1542.9575   479.8921 C1            1 RES     
   29411 C1        1452.5501 -1542.7225   481.1544 C1            1 RES     
   29412 C1        1452.5952 -1543.8819   481.9354 C1            1 RES     
   29413 C1        1452.1531 -1545.0147   481.2049 C1            1 RES     
   29414 S2        1451.6822 -1544.5454   479.6325 S2            1 RES     
   29415 H3        1452.9065 -1538.6033   479.7799 H3            1 RES     
   29416 H3        1452.9402 -1543.8891   482.9584 H3            1 RES     
   29417 N4        1451.2737 -1548.6793   481.3254 N4            1 RES     
   29418 C1        1451.3028 -1547.3646   480.9647 C1            1 RES     
   29419 C1        1452.1243 -1546.4356   481.6446 C1            1 RES     
   29420 C1        1452.9211 -1546.9315   482.6923 C1            1 RES     
   29421 N4        1453.7978 -1546.1881   483.4135 N4            1 RES     
   29422 S2        1454.4595 -1547.3033   484.4383 S2            1 RES     
   29423 N4        1453.7010 -1548.7122   484.0294 N4            1 RES     
   29424 C1        1452.8780 -1548.3141   483.0296 C1            1 RES     
   29425 C1        1452.0378 -1549.1741   482.3354 C1            1 RES     
   29426 H5        1450.6677 -1547.0476   480.1489 H5            1 RES     
   29427 C0        1451.7767 -1540.5253   482.2376 C0            1 RES     
   29428 C0        1451.3936 -1540.7883   483.7366 C0            1 RES     
   29429 C0        1449.9412 -1540.2472   484.0030 C0            1 RES     
   29430 C0        1449.6879 -1538.7183   484.1581 C0            1 RES     
   29431 C0        1449.8975 -1537.7923   482.9419 C0            1 RES     
   29432 C0        1449.1030 -1538.1656   481.6756 C0            1 RES     
   29433 C0        1447.5828 -1538.1086   481.8758 C0            1 RES     
   29434 C0        1446.8513 -1538.4317   480.5748 C0            1 RES     
   29435 C0        1452.3277 -1540.1880   484.8258 C0            1 RES     
   29436 C0        1453.5358 -1541.0414   485.2009 C0            1 RES     
   29437 C0        1454.4430 -1540.2890   486.1919 C0            1 RES     
   29438 C0        1455.7020 -1541.0951   486.5480 C0            1 RES     
   29439 C0        1456.6946 -1540.2291   487.3431 C0            1 RES     
   29440 C0        1458.0625 -1540.9000   487.5673 C0            1 RES     
   29441 C0        1458.8470 -1541.0968   486.2547 C0            1 RES     
   29442 C0        1460.2439 -1541.6533   486.5112 C0            1 RES     
   29443 H6        1451.9372 -1539.4457   482.1086 H6            1 RES     
   29444 H6        1450.8403 -1540.7957   481.7015 H6            1 RES     
   29445 H6        1451.2998 -1541.8878   483.8801 H6            1 RES     
   29446 H6        1449.6268 -1540.6837   484.9779 H6            1 RES     
   29447 H6        1449.2333 -1540.6660   483.2558 H6            1 RES     
   29448 H6        1450.3049 -1538.3263   484.9939 H6            1 RES     
   29449 H6        1448.6307 -1538.6033   484.4789 H6            1 RES     
   29450 H6        1450.9710 -1537.7258   482.6995 H6            1 RES     
   29451 H6        1449.6086 -1536.7615   483.2424 H6            1 RES     
   29452 H6        1449.3897 -1539.1729   481.3213 H6            1 RES     
   29453 H6        1449.3797 -1537.4394   480.8799 H6            1 RES     
   29454 H6        1447.2674 -1538.8442   482.6446 H6            1 RES     
   29455 H6        1447.2903 -1537.0891   482.2084 H6            1 RES     
   29456 H6        1447.1278 -1537.7026   479.7834 H6            1 RES     
   29457 H6        1445.7547 -1538.3774   480.7400 H6            1 RES     
   29458 H6        1447.1093 -1539.4565   480.2318 H6            1 RES     
   29459 H6        1451.7666 -1540.1013   485.7836 H6            1 RES     
   29460 H6        1452.6226 -1539.1613   484.5154 H6            1 RES     
   29461 H6        1453.1977 -1542.0067   485.6369 H6            1 RES     
   29462 H6        1454.0993 -1541.2526   484.3024 H6            1 RES     
   29463 H6        1454.7572 -1539.3419   485.6987 H6            1 RES     
   29464 H6        1453.8887 -1540.0354   487.1217 H6            1 RES     
   29465 H6        1455.4347 -1542.0098   487.1197 H6            1 RES     
   29466 H6        1456.1765 -1541.4212   485.6143 H6            1 RES     
   29467 H6        1456.8747 -1539.2699   486.8085 H6            1 RES     
   29468 H6        1456.2384 -1539.9895   488.3289 H6            1 RES     
   29469 H6        1457.9312 -1541.8710   488.0911 H6            1 RES     
   29470 H6        1458.6577 -1540.2268   488.2223 H6            1 RES     
   29471 H6        1458.9509 -1540.1190   485.7340 H6            1 RES     
   29472 H6        1458.3224 -1541.8051   485.5869 H6            1 RES     
   29473 H6        1460.7763 -1541.7730   485.5456 H6            1 RES     
   29474 H6        1460.8258 -1540.9581   487.1536 H6            1 RES     
   29475 H6        1460.1777 -1542.6458   487.0082 H6            1 RES     
   29476 C0        1454.3698 -1540.8044   481.6449 C0            1 RES     
   29477 C0        1455.5052 -1541.7571   482.1472 C0            1 RES     
   29478 C0        1456.5759 -1540.9478   482.9586 C0            1 RES     
   29479 C0        1457.5925 -1540.0206   482.2477 C0            1 RES     
   29480 C0        1457.0637 -1538.7191   481.6112 C0            1 RES     
   29481 C0        1456.2844 -1537.7790   482.5549 C0            1 RES     
   29482 C0        1457.0918 -1537.3069   483.7711 C0            1 RES     
   29483 C0        1456.2678 -1536.3422   484.6217 C0            1 RES     
   29484 C0        1456.2622 -1542.5986   481.0780 C0            1 RES     
   29485 C0        1455.4381 -1543.6876   480.4121 C0            1 RES     
   29486 C0        1456.2803 -1544.5938   479.5131 C0            1 RES     
   29487 C0        1455.3924 -1545.6936   478.9198 C0            1 RES     
   29488 C0        1456.1943 -1546.6348   478.0129 C0            1 RES     
   29489 C0        1455.3456 -1547.7891   477.4532 C0            1 RES     
   29490 C0        1454.1997 -1547.3132   476.5460 C0            1 RES     
   29491 C0        1453.4340 -1548.4964   475.9636 C0            1 RES     
   29492 H6        1454.7840 -1540.2637   480.7763 H6            1 RES     
   29493 H6        1454.2412 -1540.0203   482.4074 H6            1 RES     
   29494 H6        1455.0596 -1542.4630   482.8751 H6            1 RES     
   29495 H6        1457.1993 -1541.7104   483.4741 H6            1 RES     
   29496 H6        1456.0853 -1540.3493   483.7446 H6            1 RES     
   29497 H6        1458.1576 -1540.5953   481.4860 H6            1 RES     
   29498 H6        1458.3376 -1539.7218   483.0161 H6            1 RES     
   29499 H6        1456.4344 -1538.9545   480.7363 H6            1 RES     
   29500 H6        1457.9403 -1538.1624   481.2142 H6            1 RES     
   29501 H6        1455.3604 -1538.2642   482.9150 H6            1 RES     
   29502 H6        1455.9806 -1536.8887   481.9613 H6            1 RES     
   29503 H6        1457.3718 -1538.1736   484.4060 H6            1 RES     
   29504 H6        1458.0161 -1536.7923   483.4308 H6            1 RES     
   29505 H6        1455.9839 -1535.4479   484.0264 H6            1 RES     
   29506 H6        1456.8631 -1536.0119   485.4982 H6            1 RES     
   29507 H6        1455.3444 -1536.8413   484.9874 H6            1 RES     
   29508 H6        1457.0947 -1543.1225   481.5988 H6            1 RES     
   29509 H6        1456.7004 -1541.9365   480.3001 H6            1 RES     
   29510 H6        1455.0046 -1544.3262   481.2073 H6            1 RES     
   29511 H6        1454.6603 -1543.2144   479.7907 H6            1 RES     
   29512 H6        1456.7375 -1543.9923   478.6978 H6            1 RES     
   29513 H6        1457.0913 -1545.0643   480.1136 H6            1 RES     
   29514 H6        1454.9400 -1546.2859   479.7466 H6            1 RES     
   29515 H6        1454.5811 -1545.2072   478.3398 H6            1 RES     
   29516 H6        1456.6401 -1546.0586   477.1730 H6            1 RES     
   29517 H6        1457.0220 -1547.0803   478.6076 H6            1 RES     
   29518 H6        1454.9334 -1548.3874   478.2957 H6            1 RES     
   29519 H6        1456.0195 -1548.4447   476.8594 H6            1 RES     
   29520 H6        1454.6133 -1546.7067   475.7114 H6            1 RES     
   29521 H6        1453.4804 -1546.6936   477.1205 H6            1 RES     
   29522 H6        1452.6142 -1548.1238   475.3138 H6            1 RES     
   29523 H6        1454.1109 -1549.1318   475.3540 H6            1 RES     
   29524 H6        1452.9921 -1549.1082   476.7789 H6            1 RES     
   29525 C0        1451.5434 -1553.7943   485.0969 C0            1 RES     
   29526 C1        1451.7517 -1552.7354   484.0066 C1            1 RES     
   29527 C1        1451.9330 -1553.2703   482.7788 C1            1 RES     
   29528 S2        1452.1325 -1552.1029   481.5986 S2            1 RES     
   29529 C1        1451.9677 -1550.8284   482.7206 C1            1 RES     
   29530 C1        1451.7564 -1551.3392   484.0065 C1            1 RES     
   29531 C1        1451.8856 -1554.6823   482.8999 C1            1 RES     
   29532 C1        1451.6993 -1555.0330   484.2062 C1            1 RES     
   29533 C1        1451.6827 -1556.4188   484.3940 C1            1 RES     
   29534 C1        1451.8759 -1557.1087   483.1695 C1            1 RES     
   29535 S2        1452.0205 -1555.9899   481.8881 S2            1 RES     
   29536 H3        1451.6152 -1550.7305   484.8887 H3            1 RES     
   29537 H3        1451.5516 -1556.8800   485.3613 H3            1 RES     
   29538 N4        1451.9275 -1560.4506   481.4244 N4            1 RES     
   29539 C1        1451.7935 -1559.1147   481.6623 C1            1 RES     
   29540 C1        1452.0017 -1558.5750   482.9529 C1            1 RES     
   29541 C1        1452.3709 -1559.4728   483.9708 C1            1 RES     
   29542 N4        1452.6540 -1559.1160   485.2491 N4            1 RES     
   29543 S2        1453.0621 -1560.5587   485.9448 S2            1 RES     
   29544 N4        1452.9079 -1561.6473   484.7125 N4            1 RES     
   29545 C1        1452.5187 -1560.8591   483.6816 C1            1 RES     
   29546 C1        1452.2838 -1561.3311   482.3973 C1            1 RES     
   29547 H5        1451.5097 -1558.4776   480.8358 H5            1 RES     
   29548 C0        1450.0415 -1553.5813   485.5267 C0            1 RES     
   29549 C0        1449.1329 -1554.5025   486.4149 C0            1 RES     
   29550 C0        1447.6223 -1554.1737   486.1265 C0            1 RES     
   29551 C0        1446.9718 -1552.8863   486.7143 C0            1 RES     
   29552 C0        1447.4512 -1551.5059   486.2190 C0            1 RES     
   29553 C0        1447.3834 -1551.2843   484.6957 C0            1 RES     
   29554 C0        1445.9567 -1551.3588   484.1359 C0            1 RES     
   29555 C0        1445.9468 -1551.0752   482.6354 C0            1 RES     
   29556 C0        1449.3439 -1554.4385   487.9547 C0            1 RES     
   29557 C0        1450.4429 -1555.3414   488.5072 C0            1 RES     
   29558 C0        1450.6360 -1555.0980   490.0153 C0            1 RES     
   29559 C0        1451.7763 -1555.9489   490.5959 C0            1 RES     
   29560 C0        1452.1001 -1555.5137   492.0358 C0            1 RES     
   29561 C0        1453.3594 -1556.1821   492.6179 C0            1 RES     
   29562 C0        1454.6488 -1555.7460   491.8938 C0            1 RES     
   29563 C0        1455.8926 -1556.3264   492.5595 C0            1 RES     
   29564 H6        1449.9799 -1552.5568   485.9196 H6            1 RES     
   29565 H6        1449.5153 -1553.6014   484.5469 H6            1 RES     
   29566 H6        1449.2514 -1555.5499   486.0582 H6            1 RES     
   29567 H6        1447.0376 -1555.0108   486.5702 H6            1 RES     
   29568 H6        1447.4207 -1554.2253   485.0350 H6            1 RES     
   29569 H6        1447.0628 -1552.9007   487.8208 H6            1 RES     
   29570 H6        1445.8847 -1552.9530   486.4964 H6            1 RES     
   29571 H6        1448.4761 -1551.3126   486.5762 H6            1 RES     
   29572 H6        1446.8262 -1550.7293   486.7116 H6            1 RES     
   29573 H6        1448.0237 -1552.0157   484.1690 H6            1 RES     
   29574 H6        1447.7903 -1550.2707   484.4859 H6            1 RES     
   29575 H6        1445.5296 -1552.3694   484.3021 H6            1 RES     
   29576 H6        1445.3177 -1550.6067   484.6475 H6            1 RES     
   29577 H6        1446.3511 -1550.0610   482.4299 H6            1 RES     
   29578 H6        1444.9057 -1551.1265   482.2529 H6            1 RES     
   29579 H6        1446.5615 -1551.8279   482.0968 H6            1 RES     
   29580 H6        1448.4264 -1554.8070   488.4667 H6            1 RES     
   29581 H6        1449.4893 -1553.3759   488.2502 H6            1 RES     
   29582 H6        1450.1919 -1556.4069   488.3128 H6            1 RES     
   29583 H6        1451.3669 -1555.1105   487.9948 H6            1 RES     
   29584 H6        1450.8948 -1554.0233   490.1462 H6            1 RES     
   29585 H6        1449.6967 -1555.3049   490.5730 H6            1 RES     
   29586 H6        1451.5175 -1557.0291   490.5620 H6            1 RES     
   29587 H6        1452.6648 -1555.8066   489.9685 H6            1 RES     
   29588 H6        1452.2564 -1554.4126   492.0736 H6            1 RES     
   29589 H6        1451.2261 -1555.7563   492.6796 H6            1 RES     
   29590 H6        1453.2532 -1557.2876   492.5908 H6            1 RES     
   29591 H6        1453.4413 -1555.8644   493.6804 H6            1 RES     
   29592 H6        1454.7283 -1554.6364   491.9126 H6            1 RES     
   29593 H6        1454.6424 -1556.0876   490.8420 H6            1 RES     
   29594 H6        1456.7961 -1555.9842   492.0146 H6            1 RES     
   29595 H6        1455.9630 -1555.9837   493.6140 H6            1 RES     
   29596 H6        1455.8597 -1557.4375   492.5346 H6            1 RES     
   29597 C0        1452.6250 -1553.5031   486.2146 C0            1 RES     
   29598 C0        1453.6301 -1554.5537   486.7932 C0            1 RES     
   29599 C0        1454.0287 -1554.1745   488.2620 C0            1 RES     
   29600 C0        1454.9983 -1553.0032   488.5557 C0            1 RES     
   29601 C0        1454.4971 -1551.5669   488.3010 C0            1 RES     
   29602 C0        1453.1922 -1551.1733   489.0248 C0            1 RES     
   29603 C0        1453.2691 -1551.2839   490.5531 C0            1 RES     
   29604 C0        1451.9588 -1550.8272   491.1916 C0            1 RES     
   29605 C0        1454.9453 -1554.8032   485.9982 C0            1 RES     
   29606 C0        1454.7670 -1555.4919   484.6556 C0            1 RES     
   29607 C0        1456.0998 -1555.8741   484.0106 C0            1 RES     
   29608 C0        1455.8374 -1556.6067   482.6899 C0            1 RES     
   29609 C0        1457.1467 -1557.0175   482.0055 C0            1 RES     
   29610 C0        1456.9172 -1557.8131   480.7092 C0            1 RES     
   29611 C0        1456.1882 -1557.0046   479.6240 C0            1 RES     
   29612 C0        1456.0477 -1557.8137   478.3391 C0            1 RES     
   29613 H6        1453.2271 -1552.6187   485.9429 H6            1 RES     
   29614 H6        1452.0025 -1553.1516   487.0523 H6            1 RES     
   29615 H6        1453.0995 -1555.5224   486.8756 H6            1 RES     
   29616 H6        1454.5357 -1555.0734   488.6754 H6            1 RES     
   29617 H6        1453.1241 -1554.0076   488.8707 H6            1 RES     
   29618 H6        1455.9520 -1553.1583   488.0114 H6            1 RES     
   29619 H6        1455.2519 -1553.0673   489.6357 H6            1 RES     
   29620 H6        1454.3747 -1551.3956   487.2182 H6            1 RES     
   29621 H6        1455.2992 -1550.8711   488.6301 H6            1 RES     
   29622 H6        1452.3474 -1551.7898   488.6712 H6            1 RES     
   29623 H6        1452.9672 -1550.1179   488.7546 H6            1 RES     
   29624 H6        1453.4501 -1552.3373   490.8532 H6            1 RES     
   29625 H6        1454.0987 -1550.6501   490.9337 H6            1 RES     
   29626 H6        1451.7509 -1549.7671   490.9313 H6            1 RES     
   29627 H6        1452.0282 -1550.9154   492.2957 H6            1 RES     
   29628 H6        1451.1154 -1551.4586   490.8373 H6            1 RES     
   29629 H6        1455.5762 -1555.4868   486.6094 H6            1 RES     
   29630 H6        1455.5011 -1553.8511   485.8562 H6            1 RES     
   29631 H6        1454.2024 -1556.4308   484.8227 H6            1 RES     
   29632 H6        1454.2388 -1554.8068   483.9726 H6            1 RES     
   29633 H6        1456.7024 -1554.9587   483.8251 H6            1 RES     
   29634 H6        1456.6652 -1556.5467   484.6944 H6            1 RES     
   29635 H6        1455.2319 -1557.5190   482.8903 H6            1 RES     
   29636 H6        1455.2592 -1555.9293   482.0280 H6            1 RES     
   29637 H6        1457.7558 -1556.1138   481.7855 H6            1 RES     
   29638 H6        1457.7232 -1557.6648   482.7026 H6            1 RES     
   29639 H6        1456.3416 -1558.7369   480.9391 H6            1 RES     
   29640 H6        1457.9139 -1558.1137   480.3183 H6            1 RES     
   29641 H6        1456.7597 -1556.0770   479.4042 H6            1 RES     
   29642 H6        1455.1685 -1556.7284   479.9638 H6            1 RES     
   29643 H6        1455.5188 -1557.2063   477.5746 H6            1 RES     
   29644 H6        1457.0490 -1558.0891   477.9450 H6            1 RES     
   29645 H6        1455.4609 -1558.7379   478.5281 H6            1 RES     
   29646 C0        1451.7777 -1566.7107   482.5427 C0            1 RES     
   29647 C1        1452.1708 -1565.2687   482.1967 C1            1 RES     
   29648 C1        1452.9777 -1565.1863   481.1156 C1            1 RES     
   29649 S2        1453.3755 -1563.6072   480.7368 S2            1 RES     
   29650 C1        1452.4522 -1562.9820   482.0279 C1            1 RES     
   29651 C1        1451.8431 -1564.0237   482.7369 C1            1 RES     
   29652 C1        1453.2204 -1566.5012   480.6435 C1            1 RES     
   29653 C1        1452.5864 -1567.4088   481.4424 C1            1 RES     
   29654 C1        1452.8216 -1568.7297   481.0476 C1            1 RES     
   29655 C1        1453.6741 -1568.7867   479.9152 C1            1 RES     
   29656 S2        1454.0786 -1567.2064   479.4115 S2            1 RES     
   29657 H3        1451.2005 -1563.8831   483.5949 H3            1 RES     
   29658 H3        1452.4059 -1569.5813   481.5649 H3            1 RES     
   29659 N4        1455.2544 -1570.9762   477.2835 N4            1 RES     
   29660 C1        1454.7189 -1569.8956   477.9198 C1            1 RES     
   29661 C1        1454.2246 -1569.9933   479.2413 C1            1 RES     
   29662 C1        1454.3284 -1571.2457   479.8732 C1            1 RES     
   29663 N4        1453.9482 -1571.4991   481.1510 N4            1 RES     
   29664 S2        1454.3522 -1573.0907   481.3391 S2            1 RES     
   29665 N4        1454.9995 -1573.5076   479.8780 N4            1 RES     
   29666 C1        1454.9098 -1572.3475   479.1840 C1            1 RES     
   29667 C1        1455.3620 -1572.1930   477.8805 C1            1 RES     
   29668 H5        1454.6704 -1568.9603   477.3791 H5            1 RES     
   29669 C0        1450.2324 -1566.7494   482.2319 C0            1 RES     
   29670 C0        1449.2805 -1567.9931   482.1320 C0            1 RES     
   29671 C0        1448.0050 -1567.6040   481.2984 C0            1 RES     
   29672 C0        1446.8812 -1566.7368   481.9393 C0            1 RES     
   29673 C0        1447.1822 -1565.2711   482.3158 C0            1 RES     
   29674 C0        1447.7170 -1564.3862   481.1734 C0            1 RES     
   29675 C0        1446.7260 -1564.2320   480.0122 C0            1 RES     
   29676 C0        1447.2869 -1563.3009   478.9396 C0            1 RES     
   29677 C0        1448.7959 -1568.6275   483.4670 C0            1 RES     
   29678 C0        1449.7361 -1569.6573   484.0866 C0            1 RES     
   29679 C0        1449.2066 -1570.1178   485.4573 C0            1 RES     
   29680 C0        1450.1586 -1571.1131   486.1390 C0            1 RES     
   29681 C0        1449.7267 -1571.3687   487.5934 C0            1 RES     
   29682 C0        1450.7386 -1572.1992   488.4045 C0            1 RES     
   29683 C0        1452.0689 -1571.4535   488.6313 C0            1 RES     
   29684 C0        1453.0109 -1572.2436   489.5343 C0            1 RES     
   29685 H6        1449.7683 -1566.0149   482.9050 H6            1 RES     
   29686 H6        1450.1935 -1566.3363   481.1999 H6            1 RES     
   29687 H6        1449.7844 -1568.7630   481.5062 H6            1 RES     
   29688 H6        1447.5048 -1568.5644   481.0396 H6            1 RES     
   29689 H6        1448.3045 -1567.1611   480.3243 H6            1 RES     
   29690 H6        1446.4943 -1567.2479   482.8460 H6            1 RES     
   29691 H6        1446.0398 -1566.7225   481.2144 H6            1 RES     
   29692 H6        1447.8800 -1565.2369   483.1687 H6            1 RES     
   29693 H6        1446.2424 -1564.8157   482.6976 H6            1 RES     
   29694 H6        1448.6739 -1564.7855   480.7897 H6            1 RES     
   29695 H6        1447.9207 -1563.3783   481.5972 H6            1 RES     
   29696 H6        1446.5225 -1565.2181   479.5455 H6            1 RES     
   29697 H6        1445.7717 -1563.8074   480.3927 H6            1 RES     
   29698 H6        1447.4863 -1562.2944   479.3658 H6            1 RES     
   29699 H6        1446.5520 -1563.1975   478.1138 H6            1 RES     
   29700 H6        1448.2315 -1563.7145   478.5258 H6            1 RES     
   29701 H6        1447.8646 -1569.2086   483.2807 H6            1 RES     
   29702 H6        1448.5449 -1567.8104   484.1790 H6            1 RES     
   29703 H6        1449.8525 -1570.5252   483.4015 H6            1 RES     
   29704 H6        1450.7060 -1569.1987   484.2228 H6            1 RES     
   29705 H6        1449.1217 -1569.2129   486.0998 H6            1 RES     
   29706 H6        1448.1984 -1570.5759   485.3584 H6            1 RES     
   29707 H6        1450.2037 -1572.0668   485.5702 H6            1 RES     
   29708 H6        1451.1674 -1570.6822   486.1335 H6            1 RES     
   29709 H6        1449.5855 -1570.4005   488.1234 H6            1 RES     
   29710 H6        1448.7475 -1571.8961   487.5802 H6            1 RES     
   29711 H6        1450.9201 -1573.1751   487.9056 H6            1 RES     
   29712 H6        1450.2836 -1572.3945   489.4002 H6            1 RES     
   29713 H6        1451.8666 -1570.4708   489.1123 H6            1 RES     
   29714 H6        1452.5911 -1571.2826   487.6715 H6            1 RES     
   29715 H6        1453.9502 -1571.6715   489.6779 H6            1 RES     
   29716 H6        1452.5432 -1572.4133   490.5277 H6            1 RES     
   29717 H6        1453.2568 -1573.2238   489.0706 H6            1 RES     
   29718 C0        1452.1788 -1566.9317   484.0572 C0            1 RES     
   29719 C0        1453.0610 -1568.1072   484.5948 C0            1 RES     
   29720 C0        1452.6955 -1568.4242   486.0867 C0            1 RES     
   29721 C0        1453.1395 -1567.4905   487.2397 C0            1 RES     
   29722 C0        1452.4684 -1566.1061   487.3499 C0            1 RES     
   29723 C0        1450.9275 -1566.1122   487.4351 C0            1 RES     
   29724 C0        1450.3721 -1566.9002   488.6286 C0            1 RES     
   29725 C0        1448.8478 -1566.8116   488.6686 C0            1 RES     
   29726 C0        1454.6069 -1567.9401   484.5142 C0            1 RES     
   29727 C0        1455.1847 -1567.9512   483.1091 C0            1 RES     
   29728 C0        1456.7139 -1567.9698   483.1036 C0            1 RES     
   29729 C0        1457.2194 -1568.0318   481.6577 C0            1 RES     
   29730 C0        1458.7515 -1568.0587   481.5990 C0            1 RES     
   29731 C0        1459.2905 -1568.1871   480.1640 C0            1 RES     
   29732 C0        1458.9221 -1566.9922   479.2701 C0            1 RES     
   29733 C0        1459.5372 -1567.1358   477.8821 C0            1 RES     
   29734 H6        1452.6100 -1566.0065   484.4776 H6            1 RES     
   29735 H6        1451.1958 -1567.0114   484.5473 H6            1 RES     
   29736 H6        1452.7927 -1569.0203   484.0283 H6            1 RES     
   29737 H6        1453.1766 -1569.4010   486.3110 H6            1 RES     
   29738 H6        1451.6071 -1568.5712   486.1889 H6            1 RES     
   29739 H6        1454.2406 -1567.3609   487.2166 H6            1 RES     
   29740 H6        1452.9178 -1568.0302   488.1855 H6            1 RES     
   29741 H6        1452.7805 -1565.4665   486.5071 H6            1 RES     
   29742 H6        1452.8640 -1565.6162   488.2660 H6            1 RES     
   29743 H6        1450.4861 -1566.5213   486.5095 H6            1 RES     
   29744 H6        1450.5948 -1565.0542   487.5205 H6            1 RES     
   29745 H6        1450.6533 -1567.9710   488.5460 H6            1 RES     
   29746 H6        1450.7847 -1566.4882   489.5747 H6            1 RES     
   29747 H6        1448.5247 -1565.7534   488.7719 H6            1 RES     
   29748 H6        1448.4606 -1567.3880   489.5344 H6            1 RES     
   29749 H6        1448.4114 -1567.2337   487.7375 H6            1 RES     
   29750 H6        1455.0610 -1568.8116   485.0369 H6            1 RES     
   29751 H6        1454.9265 -1567.0143   485.0399 H6            1 RES     
   29752 H6        1454.8437 -1568.8767   482.6039 H6            1 RES     
   29753 H6        1454.8504 -1567.0435   482.5806 H6            1 RES     
   29754 H6        1457.1015 -1567.0560   483.6037 H6            1 RES     
   29755 H6        1457.0774 -1568.8658   483.6556 H6            1 RES     
   29756 H6        1456.8222 -1568.9497   481.1691 H6            1 RES     
   29757 H6        1456.8343 -1567.1417   481.1187 H6            1 RES     
   29758 H6        1459.1622 -1567.1395   482.0707 H6            1 RES     
   29759 H6        1459.1131 -1568.9379   482.1766 H6            1 RES     
   29760 H6        1458.9095 -1569.1279   479.7086 H6            1 RES     
   29761 H6        1460.3987 -1568.2556   480.2260 H6            1 RES     
   29762 H6        1459.2942 -1566.0526   479.7329 H6            1 RES     
   29763 H6        1457.8214 -1566.9229   479.1475 H6            1 RES     
   29764 H6        1459.2554 -1566.2605   477.2595 H6            1 RES     
   29765 H6        1460.6447 -1567.1803   477.9535 H6            1 RES     
   29766 H6        1459.1640 -1568.0587   477.3890 H6            1 RES     
   29767 C0        1456.1367 -1577.0669   475.6754 C0            1 RES     
   29768 C1        1456.2844 -1575.6158   476.1509 C1            1 RES     
   29769 C1        1457.4286 -1575.0350   475.7268 C1            1 RES     
   29770 S2        1457.5617 -1573.4466   476.2315 S2            1 RES     
   29771 C1        1456.0583 -1573.4941   477.0364 C1            1 RES     
   29772 C1        1455.4728 -1574.7574   476.8951 C1            1 RES     
   29773 C1        1458.1537 -1575.9883   474.9677 C1            1 RES     
   29774 C1        1457.4763 -1577.1733   474.9364 C1            1 RES     
   29775 C1        1458.1634 -1578.1672   474.2320 C1            1 RES     
   29776 C1        1459.4025 -1577.6865   473.7362 C1            1 RES     
   29777 S2        1459.5941 -1576.0404   474.1466 S2            1 RES     
   29778 H3        1454.5137 -1575.0347   477.3100 H3            1 RES     
   29779 H3        1457.7830 -1579.1699   474.1076 H3            1 RES     
   29780 N4        1462.4208 -1578.4125   471.5962 N4            1 RES     
   29781 C1        1461.4260 -1577.7490   472.2515 C1            1 RES     
   29782 C1        1460.4563 -1578.4450   473.0101 C1            1 RES     
   29783 C1        1460.5764 -1579.8450   473.0736 C1            1 RES     
   29784 N4        1459.7620 -1580.6575   473.7934 N4            1 RES     
   29785 S2        1460.4134 -1582.1524   473.5240 S2            1 RES     
   29786 N4        1461.6983 -1581.8487   472.5318 N4            1 RES     
   29787 C1        1461.6388 -1580.5025   472.3910 C1            1 RES     
   29788 C1        1462.5506 -1579.7650   471.6478 C1            1 RES     
   29789 H5        1461.3909 -1576.6717   472.1641 H5            1 RES     
   29790 C0        1454.9279 -1576.9961   474.6657 C0            1 RES     
   29791 C0        1454.4342 -1578.0816   473.6455 C0            1 RES     
   29792 C0        1453.5814 -1577.3868   472.5215 C0            1 RES     
   29793 C0        1452.1213 -1576.9291   472.8123 C0            1 RES     
   29794 C0        1451.8760 -1575.7856   473.8187 C0            1 RES     
   29795 C0        1452.6180 -1574.4678   473.5236 C0            1 RES     
   29796 C0        1452.2085 -1573.8279   472.1905 C0            1 RES     
   29797 C0        1452.9326 -1572.4998   471.9806 C0            1 RES     
   29798 C0        1453.5949 -1579.2620   474.2126 C0            1 RES     
   29799 C0        1454.3980 -1580.4389   474.7587 C0            1 RES     
   29800 C0        1453.4630 -1581.4814   475.3990 C0            1 RES     
   29801 C0        1454.2418 -1582.6554   476.0129 C0            1 RES     
   29802 C0        1453.3077 -1583.5508   476.8453 C0            1 RES     
   29803 C0        1454.0448 -1584.6350   477.6533 C0            1 RES     
   29804 C0        1454.9335 -1584.0423   478.7651 C0            1 RES     
   29805 C0        1455.5609 -1585.1336   479.6268 C0            1 RES     
   29806 H6        1454.0621 -1576.6562   475.2512 H6            1 RES     
   29807 H6        1455.2338 -1576.1620   473.9965 H6            1 RES     
   29808 H6        1455.3231 -1578.4736   473.1027 H6            1 RES     
   29809 H6        1453.4825 -1578.1375   471.7053 H6            1 RES     
   29810 H6        1454.1513 -1576.5446   472.0738 H6            1 RES     
   29811 H6        1451.5199 -1577.8036   473.1385 H6            1 RES     
   29812 H6        1451.6906 -1576.6078   471.8402 H6            1 RES     
   29813 H6        1452.1154 -1576.1248   474.8400 H6            1 RES     
   29814 H6        1450.7847 -1575.5737   473.8370 H6            1 RES     
   29815 H6        1453.7118 -1574.6285   473.5337 H6            1 RES     
   29816 H6        1452.3764 -1573.7562   474.3434 H6            1 RES     
   29817 H6        1452.4632 -1574.5007   471.3456 H6            1 RES     
   29818 H6        1451.1124 -1573.6431   472.1888 H6            1 RES     
   29819 H6        1452.6867 -1571.7906   472.7997 H6            1 RES     
   29820 H6        1452.6166 -1572.0510   471.0155 H6            1 RES     
   29821 H6        1454.0319 -1572.6599   471.9558 H6            1 RES     
   29822 H6        1452.9984 -1579.7171   473.3899 H6            1 RES     
   29823 H6        1452.8791 -1578.8612   474.9639 H6            1 RES     
   29824 H6        1454.9969 -1580.9003   473.9434 H6            1 RES     
   29825 H6        1455.0785 -1580.0695   475.5136 H6            1 RES     
   29826 H6        1452.9009 -1580.9670   476.2105 H6            1 RES     
   29827 H6        1452.7330 -1581.8682   474.6549 H6            1 RES     
   29828 H6        1454.7493 -1583.2475   475.2212 H6            1 RES     
   29829 H6        1455.0230 -1582.2457   476.6649 H6            1 RES     
   29830 H6        1452.7293 -1582.9305   477.5656 H6            1 RES     
   29831 H6        1452.5832 -1584.0375   476.1558 H6            1 RES     
   29832 H6        1454.6472 -1585.2753   476.9741 H6            1 RES     
   29833 H6        1453.2710 -1585.2698   478.1379 H6            1 RES     
   29834 H6        1454.3190 -1583.3882   479.4228 H6            1 RES     
   29835 H6        1455.7566 -1583.4440   478.3319 H6            1 RES     
   29836 H6        1456.1846 -1584.6670   480.4164 H6            1 RES     
   29837 H6        1454.7709 -1585.7448   480.1133 H6            1 RES     
   29838 H6        1456.2056 -1585.7923   479.0048 H6            1 RES     
   29839 C0        1455.8967 -1577.9397   476.9733 C0            1 RES     
   29840 C0        1456.7186 -1579.2107   477.3706 C0            1 RES     
   29841 C0        1455.8413 -1580.1763   478.2411 C0            1 RES     
   29842 C0        1455.5177 -1579.8550   479.7212 C0            1 RES     
   29843 C0        1454.5556 -1578.6859   480.0149 C0            1 RES     
   29844 C0        1453.1746 -1578.7650   479.3304 C0            1 RES     
   29845 C0        1452.3700 -1580.0199   479.6930 C0            1 RES     
   29846 C0        1451.0002 -1579.9938   479.0177 C0            1 RES     
   29847 C0        1458.0637 -1578.9900   478.1232 C0            1 RES     
   29848 C0        1459.1677 -1578.3513   477.2976 C0            1 RES     
   29849 C0        1460.5104 -1578.3305   478.0293 C0            1 RES     
   29850 C0        1461.5806 -1577.7204   477.1170 C0            1 RES     
   29851 C0        1462.9504 -1577.6829   477.8052 C0            1 RES     
   29852 C0        1464.0610 -1577.1362   476.8921 C0            1 RES     
   29853 C0        1463.8348 -1575.6750   476.4723 C0            1 RES     
   29854 C0        1464.9955 -1575.1613   475.6272 C0            1 RES     
   29855 H6        1455.8750 -1577.2950   477.8690 H6            1 RES     
   29856 H6        1454.8488 -1578.2547   476.8491 H6            1 RES     
   29857 H6        1456.9418 -1579.7748   476.4440 H6            1 RES     
   29858 H6        1456.3985 -1581.1377   478.2744 H6            1 RES     
   29859 H6        1454.8820 -1580.3785   477.7356 H6            1 RES     
   29860 H6        1456.4587 -1579.7039   480.2881 H6            1 RES     
   29861 H6        1455.0507 -1580.7690   480.1473 H6            1 RES     
   29862 H6        1455.0340 -1577.7273   479.7519 H6            1 RES     
   29863 H6        1454.3958 -1578.6543   481.1146 H6            1 RES     
   29864 H6        1453.2792 -1578.7213   478.2322 H6            1 RES     
   29865 H6        1452.5963 -1577.8679   479.6435 H6            1 RES     
   29866 H6        1452.9052 -1580.9310   479.3523 H6            1 RES     
   29867 H6        1452.2309 -1580.0711   480.7944 H6            1 RES     
   29868 H6        1450.4226 -1579.1044   479.3495 H6            1 RES     
   29869 H6        1450.4314 -1580.9081   479.2865 H6            1 RES     
   29870 H6        1451.1146 -1579.9591   477.9126 H6            1 RES     
   29871 H6        1458.4456 -1579.9930   478.4180 H6            1 RES     
   29872 H6        1457.8996 -1578.3949   479.0476 H6            1 RES     
   29873 H6        1459.3042 -1578.9558   476.3789 H6            1 RES     
   29874 H6        1458.8842 -1577.3106   477.0703 H6            1 RES     
   29875 H6        1460.4195 -1577.7330   478.9622 H6            1 RES     
   29876 H6        1460.8065 -1579.3707   478.2937 H6            1 RES     
   29877 H6        1461.6592 -1578.3269   476.1870 H6            1 RES     
   29878 H6        1461.2614 -1576.6918   476.8500 H6            1 RES     
   29879 H6        1462.8905 -1577.0672   478.7291 H6            1 RES     
   29880 H6        1463.2301 -1578.7197   478.0952 H6            1 RES     
   29881 H6        1464.1452 -1577.7778   475.9872 H6            1 RES     
   29882 H6        1465.0192 -1577.2000   477.4529 H6            1 RES     
   29883 H6        1463.7400 -1575.0380   477.3783 H6            1 RES     
   29884 H6        1462.9087 -1575.5828   475.8679 H6            1 RES     
   29885 H6        1464.8056 -1574.1058   475.3391 H6            1 RES     
   29886 H6        1465.9434 -1575.2080   476.2044 H6            1 RES     
   29887 H6        1465.0982 -1575.7697   474.7034 H6            1 RES     
   29888 C0        1465.3220 -1583.0958   468.4165 C0            1 RES     
   29889 C1        1464.9043 -1582.0136   469.4204 C1            1 RES     
   29890 C1        1465.9460 -1581.2779   469.8677 C1            1 RES     
   29891 S2        1465.4704 -1580.0869   470.9404 S2            1 RES     
   29892 C1        1463.8265 -1580.5275   470.8228 C1            1 RES     
   29893 C1        1463.6752 -1581.6034   469.9405 C1            1 RES     
   29894 C1        1467.1283 -1581.7681   469.2573 C1            1 RES     
   29895 C1        1466.8314 -1582.8260   468.4469 C1            1 RES     
   29896 C1        1467.9670 -1583.3779   467.8453 C1            1 RES     
   29897 C1        1469.1458 -1582.6968   468.2438 C1            1 RES     
   29898 S2        1468.7477 -1581.4104   469.2932 S2            1 RES     
   29899 H3        1462.7271 -1582.0601   469.6929 H3            1 RES     
   29900 H3        1467.9258 -1584.2244   467.1764 H3            1 RES     
   29901 N4        1472.8638 -1582.3076   467.7524 N4            1 RES     
   29902 C1        1471.5588 -1582.0350   468.0386 C1            1 RES     
   29903 C1        1470.5550 -1583.0208   467.8942 C1            1 RES     
   29904 C1        1470.9657 -1584.2950   467.4628 C1            1 RES     
   29905 N4        1470.1417 -1585.3635   467.3185 N4            1 RES     
   29906 S2        1471.1805 -1586.5598   466.8476 S2            1 RES     
   29907 N4        1472.6521 -1585.8109   466.8109 N4            1 RES     
   29908 C1        1472.3400 -1584.5484   467.1903 C1            1 RES     
   29909 C1        1473.2768 -1583.5339   467.3348 C1            1 RES     
   29910 H5        1471.3091 -1581.0358   468.3682 H5            1 RES     
   29911 C0        1464.6778 -1582.6038   467.0642 C0            1 RES     
   29912 C0        1464.9377 -1583.1216   465.6057 C0            1 RES     
   29913 C0        1464.5046 -1582.0133   464.5773 C0            1 RES     
   29914 C0        1462.9967 -1581.7700   464.2722 C0            1 RES     
   29915 C0        1462.0834 -1581.2111   465.3831 C0            1 RES     
   29916 C0        1462.5438 -1579.8858   466.0200 C0            1 RES     
   29917 C0        1462.5998 -1578.7217   465.0219 C0            1 RES     
   29918 C0        1463.0059 -1577.4261   465.7210 C0            1 RES     
   29919 C0        1464.2442 -1584.4496   465.1877 C0            1 RES     
   29920 C0        1464.9937 -1585.7276   465.5528 C0            1 RES     
   29921 C0        1464.1527 -1586.9680   465.1989 C0            1 RES     
   29922 C0        1464.8516 -1588.2746   465.6066 C0            1 RES     
   29923 C0        1463.8950 -1589.4707   465.4605 C0            1 RES     
   29924 C0        1464.4536 -1590.7859   466.0347 C0            1 RES     
   29925 C0        1464.6171 -1590.7400   467.5671 C0            1 RES     
   29926 C0        1465.0587 -1592.0883   468.1274 C0            1 RES     
   29927 H6        1463.5920 -1582.5852   467.2336 H6            1 RES     
   29928 H6        1465.0309 -1581.5504   467.0094 H6            1 RES     
   29929 H6        1466.0378 -1583.2053   465.4610 H6            1 RES     
   29930 H6        1464.9432 -1582.3158   463.5997 H6            1 RES     
   29931 H6        1464.9924 -1581.0468   464.8277 H6            1 RES     
   29932 H6        1462.5407 -1582.7110   463.8987 H6            1 RES     
   29933 H6        1462.9568 -1581.0537   463.4242 H6            1 RES     
   29934 H6        1461.9396 -1581.9699   466.1698 H6            1 RES     
   29935 H6        1461.0718 -1581.0553   464.9486 H6            1 RES     
   29936 H6        1463.5332 -1580.0086   466.4976 H6            1 RES     
   29937 H6        1461.8155 -1579.6274   466.8199 H6            1 RES     
   29938 H6        1463.3410 -1578.9337   464.2237 H6            1 RES     
   29939 H6        1461.5990 -1578.5812   464.5590 H6            1 RES     
   29940 H6        1462.2747 -1577.1698   466.5173 H6            1 RES     
   29941 H6        1463.0328 -1576.5967   464.9834 H6            1 RES     
   29942 H6        1464.0148 -1577.5325   466.1741 H6            1 RES     
   29943 H6        1464.1805 -1584.4970   464.0771 H6            1 RES     
   29944 H6        1463.2046 -1584.4483   465.5837 H6            1 RES     
   29945 H6        1465.9727 -1585.7567   465.0266 H6            1 RES     
   29946 H6        1465.1799 -1585.7240   466.6182 H6            1 RES     
   29947 H6        1463.1949 -1586.8892   465.7605 H6            1 RES     
   29948 H6        1463.9228 -1586.9931   464.1114 H6            1 RES     
   29949 H6        1465.7718 -1588.4329   465.0040 H6            1 RES     
   29950 H6        1465.1599 -1588.1863   466.6556 H6            1 RES     
   29951 H6        1462.9363 -1589.2565   465.9833 H6            1 RES     
   29952 H6        1463.6704 -1589.6094   464.3799 H6            1 RES     
   29953 H6        1465.4204 -1591.0360   465.5479 H6            1 RES     
   29954 H6        1463.7227 -1591.5887   465.7941 H6            1 RES     
   29955 H6        1463.6455 -1590.4682   468.0363 H6            1 RES     
   29956 H6        1465.3778 -1589.9918   467.8579 H6            1 RES     
   29957 H6        1465.1575 -1592.0151   469.2297 H6            1 RES     
   29958 H6        1464.3073 -1592.8713   467.8895 H6            1 RES     
   29959 H6        1466.0426 -1592.3796   467.6990 H6            1 RES     
   29960 C0        1464.7688 -1584.4664   468.9815 C0            1 RES     
   29961 C0        1465.6202 -1585.7606   469.2029 C0            1 RES     
   29962 C0        1464.7137 -1587.0352   469.0871 C0            1 RES     
   29963 C0        1463.7263 -1587.4255   470.2146 C0            1 RES     
   29964 C0        1462.4832 -1586.5378   470.4279 C0            1 RES     
   29965 C0        1461.5861 -1586.3303   469.1894 C0            1 RES     
   29966 C0        1461.0275 -1587.6316   468.5991 C0            1 RES     
   29967 C0        1460.1113 -1587.3342   467.4137 C0            1 RES     
   29968 C0        1466.4234 -1585.8735   470.5319 C0            1 RES     
   29969 C0        1467.5866 -1584.9054   470.6670 C0            1 RES     
   29970 C0        1468.4441 -1585.1871   471.9016 C0            1 RES     
   29971 C0        1469.6214 -1584.2062   471.9412 C0            1 RES     
   29972 C0        1470.5170 -1584.4527   473.1613 C0            1 RES     
   29973 C0        1471.7450 -1583.5269   473.1955 C0            1 RES     
   29974 C0        1471.3782 -1582.0394   473.3194 C0            1 RES     
   29975 C0        1472.6290 -1581.1727   473.4186 C0            1 RES     
   29976 H6        1464.2163 -1584.2972   469.9220 H6            1 RES     
   29977 H6        1463.9809 -1584.7151   468.2534 H6            1 RES     
   29978 H6        1466.3427 -1585.8395   468.3671 H6            1 RES     
   29979 H6        1465.4149 -1587.8948   469.0136 H6            1 RES     
   29980 H6        1464.1383 -1587.0088   468.1464 H6            1 RES     
   29981 H6        1464.2718 -1587.5256   471.1749 H6            1 RES     
   29982 H6        1463.3547 -1588.4437   469.9697 H6            1 RES     
   29983 H6        1462.7849 -1585.5533   470.8236 H6            1 RES     
   29984 H6        1461.8692 -1587.0106   471.2250 H6            1 RES     
   29985 H6        1462.1333 -1585.7924   468.3956 H6            1 RES     
   29986 H6        1460.7347 -1585.6852   469.4995 H6            1 RES     
   29987 H6        1461.8563 -1588.2776   468.2408 H6            1 RES     
   29988 H6        1460.4505 -1588.1784   469.3757 H6            1 RES     
   29989 H6        1459.2544 -1586.7045   467.7360 H6            1 RES     
   29990 H6        1459.7175 -1588.2840   466.9957 H6            1 RES     
   29991 H6        1460.6722 -1586.8009   466.6158 H6            1 RES     
   29992 H6        1466.8704 -1586.8924   470.5622 H6            1 RES     
   29993 H6        1465.7461 -1585.7646   471.4066 H6            1 RES     
   29994 H6        1468.2396 -1585.0259   469.7798 H6            1 RES     
   29995 H6        1467.1881 -1583.8812   470.7521 H6            1 RES     
   29996 H6        1467.8266 -1585.0783   472.8194 H6            1 RES     
   29997 H6        1468.8378 -1586.2274   471.8520 H6            1 RES     
   29998 H6        1470.2291 -1584.3246   471.0162 H6            1 RES     
   29999 H6        1469.2114 -1583.1756   471.9731 H6            1 RES     
   30000 H6        1469.9261 -1584.3228   474.0941 H6            1 RES     
   30001 H6        1470.8847 -1585.5019   473.1251 H6            1 RES     
   30002 H6        1472.3553 -1583.6879   472.2793 H6            1 RES     
   30003 H6        1472.3592 -1583.8156   474.0765 H6            1 RES     
   30004 H6        1470.7595 -1581.8833   474.2295 H6            1 RES     
   30005 H6        1470.8039 -1581.7051   472.4307 H6            1 RES     
   30006 H6        1472.3346 -1580.1057   473.5071 H6            1 RES     
   30007 H6        1473.2232 -1581.4537   474.3140 H6            1 RES     
   30008 H6        1473.2556 -1581.2951   472.5094 H6            1 RES     
   30009 C0        1477.8616 -1584.9793   464.8635 C0            1 RES     
   30010 C1        1476.8132 -1584.4779   465.8650 C1            1 RES     
   30011 C1        1477.3585 -1584.0003   467.0056 C1            1 RES     
   30012 S2        1476.2045 -1583.4343   468.0749 S2            1 RES     
   30013 C1        1474.9230 -1583.8115   467.0139 C1            1 RES     
   30014 C1        1475.4211 -1584.3753   465.8337 C1            1 RES     
   30015 C1        1478.7670 -1584.1344   466.9125 C1            1 RES     
   30016 C1        1479.1032 -1584.7180   465.7249 C1            1 RES     
   30017 C1        1480.4819 -1584.9121   465.5922 C1            1 RES     
   30018 C1        1481.1806 -1584.4581   466.7403 C1            1 RES     
   30019 S2        1480.0815 -1583.7947   467.8657 S2            1 RES     
   30020 H3        1474.8064 -1584.6922   465.0027 H3            1 RES     
   30021 H3        1480.9311 -1585.3653   464.7213 H3            1 RES     
   30022 N4        1484.5450 -1583.8040   468.3119 N4            1 RES     
   30023 C1        1483.2186 -1583.7202   468.0071 C1            1 RES     
   30024 C1        1482.6372 -1584.5567   467.0261 C1            1 RES     
   30025 C1        1483.4821 -1585.4884   466.3962 C1            1 RES     
   30026 N4        1483.0774 -1586.3947   465.4708 N4            1 RES     
   30027 S2        1484.4692 -1587.2246   465.1454 S2            1 RES     
   30028 N4        1485.5924 -1586.5068   466.1204 N4            1 RES     
   30029 C1        1484.8586 -1585.5597   466.7528 C1            1 RES     
   30030 C1        1485.3746 -1584.6992   467.7124 C1            1 RES     
   30031 H5        1482.6231 -1582.9840   468.5294 H5            1 RES     
   30032 C0        1477.7559 -1583.9438   463.6793 C0            1 RES     
   30033 C0        1478.7252 -1583.7399   462.4620 C0            1 RES     
   30034 C0        1478.5201 -1582.2967   461.8720 C0            1 RES     
   30035 C0        1477.2744 -1581.9761   460.9935 C0            1 RES     
   30036 C0        1475.8721 -1582.0010   461.6364 C0            1 RES     
   30037 C0        1475.6888 -1581.0968   462.8705 C0            1 RES     
   30038 C0        1475.8848 -1579.6063   462.5634 C0            1 RES     
   30039 C0        1475.6349 -1578.7580   463.8085 C0            1 RES     
   30040 C0        1478.6125 -1584.7509   461.2853 C0            1 RES     
   30041 C0        1479.4160 -1586.0384   461.4435 C0            1 RES     
   30042 C0        1479.1264 -1587.0035   460.2791 C0            1 RES     
   30043 C0        1479.8744 -1588.3369   460.4351 C0            1 RES     
   30044 C0        1479.3850 -1589.3592   459.3946 C0            1 RES     
   30045 C0        1479.9418 -1590.7788   459.6096 C0            1 RES     
   30046 C0        1479.4232 -1591.4270   460.9088 C0            1 RES     
   30047 C0        1479.8917 -1592.8724   461.0433 C0            1 RES     
   30048 H6        1476.7310 -1584.0286   463.2916 H6            1 RES     
   30049 H6        1477.8373 -1582.9717   464.2139 H6            1 RES     
   30050 H6        1479.7677 -1583.7241   462.8509 H6            1 RES     
   30051 H6        1479.3901 -1582.1143   461.2017 H6            1 RES     
   30052 H6        1478.6103 -1581.5370   462.6779 H6            1 RES     
   30053 H6        1477.2583 -1582.6567   460.1163 H6            1 RES     
   30054 H6        1477.4294 -1580.9550   460.5850 H6            1 RES     
   30055 H6        1475.5927 -1583.0367   461.8912 H6            1 RES     
   30056 H6        1475.1357 -1581.6888   460.8640 H6            1 RES     
   30057 H6        1476.3796 -1581.3998   463.6787 H6            1 RES     
   30058 H6        1474.6515 -1581.2448   463.2435 H6            1 RES     
   30059 H6        1476.9216 -1579.4174   462.2158 H6            1 RES     
   30060 H6        1475.1736 -1579.2946   461.7681 H6            1 RES     
   30061 H6        1474.5971 -1578.9062   464.1764 H6            1 RES     
   30062 H6        1475.7744 -1577.6843   463.5626 H6            1 RES     
   30063 H6        1476.3492 -1579.0347   464.6132 H6            1 RES     
   30064 H6        1479.0397 -1584.2924   460.3650 H6            1 RES     
   30065 H6        1477.5358 -1584.9525   461.0911 H6            1 RES     
   30066 H6        1480.5016 -1585.8040   461.4953 H6            1 RES     
   30067 H6        1479.1256 -1586.5127   462.3710 H6            1 RES     
   30068 H6        1478.0325 -1587.2090   460.2845 H6            1 RES     
   30069 H6        1479.3932 -1586.5393   459.3047 H6            1 RES     
   30070 H6        1480.9719 -1588.1846   460.3487 H6            1 RES     
   30071 H6        1479.6774 -1588.7255   461.4418 H6            1 RES     
   30072 H6        1478.2746 -1589.4265   459.4213 H6            1 RES     
   30073 H6        1479.6805 -1588.9993   458.3844 H6            1 RES     
   30074 H6        1481.0526 -1590.7595   459.6013 H6            1 RES     
   30075 H6        1479.5963 -1591.4024   458.7563 H6            1 RES     
   30076 H6        1478.3106 -1591.4190   460.9094 H6            1 RES     
   30077 H6        1479.7865 -1590.8740   461.7950 H6            1 RES     
   30078 H6        1479.4926 -1593.3034   461.9842 H6            1 RES     
   30079 H6        1479.5223 -1593.4802   460.1898 H6            1 RES     
   30080 H6        1481.0023 -1592.9160   461.0732 H6            1 RES     
   30081 C0        1477.4641 -1586.4694   464.5096 C0            1 RES     
   30082 C0        1478.4216 -1587.7040   464.5983 C0            1 RES     
   30083 C0        1477.9817 -1588.8089   463.5758 C0            1 RES     
   30084 C0        1476.7331 -1589.6892   463.8298 C0            1 RES     
   30085 C0        1475.3455 -1589.0226   463.7351 C0            1 RES     
   30086 C0        1475.0383 -1588.2980   462.4075 C0            1 RES     
   30087 C0        1475.1102 -1589.2041   461.1716 C0            1 RES     
   30088 C0        1474.7423 -1588.4238   459.9110 C0            1 RES     
   30089 C0        1478.5858 -1588.3873   465.9877 C0            1 RES     
   30090 C0        1479.3146 -1587.5587   467.0321 C0            1 RES     
   30091 C0        1479.6066 -1588.3486   468.3086 C0            1 RES     
   30092 C0        1480.3852 -1587.4650   469.2900 C0            1 RES     
   30093 C0        1480.7082 -1588.2161   470.5873 C0            1 RES     
   30094 C0        1481.5465 -1587.3781   471.5677 C0            1 RES     
   30095 C0        1480.8199 -1586.1162   472.0599 C0            1 RES     
   30096 C0        1481.6645 -1585.3597   473.0796 C0            1 RES     
   30097 H6        1476.5419 -1586.7565   465.0441 H6            1 RES     
   30098 H6        1477.1440 -1586.3799   463.4597 H6            1 RES     
   30099 H6        1479.4264 -1587.3799   464.2635 H6            1 RES     
   30100 H6        1478.8298 -1589.5261   463.5276 H6            1 RES     
   30101 H6        1477.8721 -1588.3731   462.5684 H6            1 RES     
   30102 H6        1476.8258 -1590.2003   464.8096 H6            1 RES     
   30103 H6        1476.7545 -1590.4949   463.0647 H6            1 RES     
   30104 H6        1475.2072 -1588.3168   464.5715 H6            1 RES     
   30105 H6        1474.5831 -1589.8186   463.8797 H6            1 RES     
   30106 H6        1475.7256 -1587.4470   462.2582 H6            1 RES     
   30107 H6        1474.0095 -1587.8825   462.4856 H6            1 RES     
   30108 H6        1476.1399 -1589.5992   461.0444 H6            1 RES     
   30109 H6        1474.4064 -1590.0560   461.2896 H6            1 RES     
   30110 H6        1473.7072 -1588.0276   459.9900 H6            1 RES     
   30111 H6        1474.8015 -1589.0907   459.0258 H6            1 RES     
   30112 H6        1475.4443 -1587.5747   459.7633 H6            1 RES     
   30113 H6        1479.2056 -1589.2993   465.8361 H6            1 RES     
   30114 H6        1477.5969 -1588.7013   466.3866 H6            1 RES     
   30115 H6        1480.2904 -1587.2500   466.6071 H6            1 RES     
   30116 H6        1478.6869 -1586.6931   467.2998 H6            1 RES     
   30117 H6        1478.6516 -1588.6807   468.7704 H6            1 RES     
   30118 H6        1480.2189 -1589.2447   468.0602 H6            1 RES     
   30119 H6        1481.3369 -1587.1384   468.8141 H6            1 RES     
   30120 H6        1479.7685 -1586.5699   469.5129 H6            1 RES     
   30121 H6        1479.7651 -1588.5356   471.0818 H6            1 RES     
   30122 H6        1481.2942 -1589.1268   470.3333 H6            1 RES     
   30123 H6        1482.5069 -1587.0934   471.0837 H6            1 RES     
   30124 H6        1481.7776 -1588.0198   472.4461 H6            1 RES     
   30125 H6        1479.8558 -1586.4026   472.5332 H6            1 RES     
   30126 H6        1480.6159 -1585.4293   471.2125 H6            1 RES     
   30127 H6        1481.1161 -1584.4551   473.4171 H6            1 RES     
   30128 H6        1481.8703 -1586.0016   473.9624 H6            1 RES     
   30129 H6        1482.6270 -1585.0434   472.6237 H6            1 RES     
   30130 C0        1490.7728 -1584.7657   467.4453 C0            1 RES     
   30131 C1        1489.3125 -1584.7954   467.9145 C1            1 RES     
   30132 C1        1489.1911 -1584.8730   469.2583 C1            1 RES     
   30133 S2        1487.5945 -1584.8782   469.7543 S2            1 RES     
   30134 C1        1487.0150 -1584.7640   468.1538 C1            1 RES     
   30135 C1        1488.0852 -1584.7216   467.2529 C1            1 RES     
   30136 C1        1490.4931 -1584.9183   469.8182 C1            1 RES     
   30137 C1        1491.4297 -1584.8939   468.8251 C1            1 RES     
   30138 C1        1492.7367 -1584.9756   469.3163 C1            1 RES     
   30139 C1        1492.7518 -1585.0739   470.7314 C1            1 RES     
   30140 S2        1491.1561 -1585.0164   471.3356 S2            1 RES     
   30141 H3        1487.9764 -1584.6424   466.1802 H3            1 RES     
   30142 H3        1493.6066 -1584.9756   468.6768 H3            1 RES     
   30143 N4        1494.8684 -1585.1246   473.8514 N4            1 RES     
   30144 C1        1493.8191 -1584.9423   472.9999 C1            1 RES     
   30145 C1        1493.9265 -1585.2578   471.6255 C1            1 RES     
   30146 C1        1495.1534 -1585.7845   471.1830 C1            1 RES     
   30147 N4        1495.4082 -1586.1833   469.9112 N4            1 RES     
   30148 S2        1496.9596 -1586.7444   470.0126 S2            1 RES     
   30149 N4        1497.3563 -1586.5195   471.5999 N4            1 RES     
   30150 C1        1496.2216 -1585.9778   472.1043 C1            1 RES     
   30151 C1        1496.0604 -1585.6327   473.4394 C1            1 RES     
   30152 H5        1492.9021 -1584.5356   473.4039 H5            1 RES     
   30153 C0        1490.9371 -1583.3093   466.8641 C0            1 RES     
   30154 C0        1492.2523 -1582.5550   466.4589 C0            1 RES     
   30155 C0        1491.9805 -1581.0060   466.4526 C0            1 RES     
   30156 C0        1491.1891 -1580.3515   465.2817 C0            1 RES     
   30157 C0        1489.6969 -1580.6964   465.0947 C0            1 RES     
   30158 C0        1488.7979 -1580.4524   466.3221 C0            1 RES     
   30159 C0        1488.7453 -1578.9801   466.7510 C0            1 RES     
   30160 C0        1487.7967 -1578.7924   467.9329 C0            1 RES     
   30161 C0        1492.8937 -1582.9269   465.0915 C0            1 RES     
   30162 C0        1493.8346 -1584.1281   465.1100 C0            1 RES     
   30163 C0        1494.3053 -1584.4687   463.6840 C0            1 RES     
   30164 C0        1495.2095 -1585.7109   463.6560 C0            1 RES     
   30165 C0        1495.4666 -1586.1631   462.2080 C0            1 RES     
   30166 C0        1496.1992 -1587.5134   462.1003 C0            1 RES     
   30167 C0        1495.3486 -1588.6907   462.6175 C0            1 RES     
   30168 C0        1496.0443 -1590.0296   462.3937 C0            1 RES     
   30169 H6        1490.2265 -1583.2331   466.0291 H6            1 RES     
   30170 H6        1490.5502 -1582.6825   467.6976 H6            1 RES     
   30171 H6        1492.9942 -1582.6929   467.2768 H6            1 RES     
   30172 H6        1492.9819 -1580.5205   466.4200 H6            1 RES     
   30173 H6        1491.5366 -1580.6911   467.4213 H6            1 RES     
   30174 H6        1491.7091 -1580.5619   464.3235 H6            1 RES     
   30175 H6        1491.2551 -1579.2527   465.4300 H6            1 RES     
   30176 H6        1489.5908 -1581.7413   464.7597 H6            1 RES     
   30177 H6        1489.3072 -1580.0855   464.2513 H6            1 RES     
   30178 H6        1489.1303 -1581.0722   467.1750 H6            1 RES     
   30179 H6        1487.7685 -1580.7767   466.0535 H6            1 RES     
   30180 H6        1489.7537 -1578.6308   467.0550 H6            1 RES     
   30181 H6        1488.3875 -1578.3587   465.9015 H6            1 RES     
   30182 H6        1486.7690 -1579.1146   467.6601 H6            1 RES     
   30183 H6        1487.7678 -1577.7207   468.2217 H6            1 RES     
   30184 H6        1488.1449 -1579.3867   468.8048 H6            1 RES     
   30185 H6        1493.5487 -1582.0922   464.7539 H6            1 RES     
   30186 H6        1492.0834 -1583.0434   464.3382 H6            1 RES     
   30187 H6        1494.7053 -1583.9177   465.7686 H6            1 RES     
   30188 H6        1493.2997 -1584.9770   465.5136 H6            1 RES     
   30189 H6        1493.3961 -1584.6793   463.0773 H6            1 RES     
   30190 H6        1494.8417 -1583.6081   463.2282 H6            1 RES     
   30191 H6        1496.1687 -1585.5110   464.1803 H6            1 RES     
   30192 H6        1494.7024 -1586.5172   464.2002 H6            1 RES     
   30193 H6        1494.5012 -1586.2606   461.6634 H6            1 RES     
   30194 H6        1496.0681 -1585.3787   461.6980 H6            1 RES     
   30195 H6        1497.1686 -1587.4671   462.6411 H6            1 RES     
   30196 H6        1496.4079 -1587.6915   461.0227 H6            1 RES     
   30197 H6        1494.3744 -1588.7093   462.0803 H6            1 RES     
   30198 H6        1495.1584 -1588.5901   463.7023 H6            1 RES     
   30199 H6        1495.3986 -1590.8485   462.7716 H6            1 RES     
   30200 H6        1496.2285 -1590.1940   461.3104 H6            1 RES     
   30201 H6        1497.0123 -1590.0567   462.9401 H6            1 RES     
   30202 C0        1490.9300 -1585.9434   466.4003 C0            1 RES     
   30203 C0        1492.0223 -1587.0625   466.4594 C0            1 RES     
   30204 C0        1492.3347 -1587.5952   465.0178 C0            1 RES     
   30205 C0        1491.3453 -1588.5235   464.2710 C0            1 RES     
   30206 C0        1490.0148 -1587.9180   463.7791 C0            1 RES     
   30207 C0        1490.1378 -1586.6787   462.8677 C0            1 RES     
   30208 C0        1490.9407 -1586.9260   461.5840 C0            1 RES     
   30209 C0        1490.9690 -1585.6687   460.7171 C0            1 RES     
   30210 C0        1491.7383 -1588.2962   467.3657 C0            1 RES     
   30211 C0        1491.7347 -1588.0131   468.8585 C0            1 RES     
   30212 C0        1491.6355 -1589.2879   469.6973 C0            1 RES     
   30213 C0        1491.6891 -1588.9261   471.1860 C0            1 RES     
   30214 C0        1491.5990 -1590.1750   472.0712 C0            1 RES     
   30215 C0        1491.7160 -1589.8520   473.5706 C0            1 RES     
   30216 C0        1490.5723 -1588.9660   474.0898 C0            1 RES     
   30217 C0        1490.6975 -1588.7334   475.5917 C0            1 RES     
   30218 H6        1489.9656 -1586.4621   466.2607 H6            1 RES     
   30219 H6        1491.0748 -1585.3962   465.4556 H6            1 RES     
   30220 H6        1492.9652 -1586.5991   466.8100 H6            1 RES     
   30221 H6        1493.2666 -1588.1935   465.1158 H6            1 RES     
   30222 H6        1492.5630 -1586.7537   464.3422 H6            1 RES     
   30223 H6        1491.1317 -1589.4202   464.8876 H6            1 RES     
   30224 H6        1491.8803 -1588.8954   463.3707 H6            1 RES     
   30225 H6        1489.3710 -1587.6701   464.6400 H6            1 RES     
   30226 H6        1489.4765 -1588.7105   463.2153 H6            1 RES     
   30227 H6        1490.5993 -1585.8366   463.4126 H6            1 RES     
   30228 H6        1489.1070 -1586.3670   462.5890 H6            1 RES     
   30229 H6        1491.9882 -1587.1973   461.8325 H6            1 RES     
   30230 H6        1490.4782 -1587.7550   461.0062 H6            1 RES     
   30231 H6        1489.9369 -1585.3747   460.4287 H6            1 RES     
   30232 H6        1491.5550 -1585.8616   459.7946 H6            1 RES     
   30233 H6        1491.4432 -1584.8288   461.2697 H6            1 RES     
   30234 H6        1492.5610 -1589.0267   467.1966 H6            1 RES     
   30235 H6        1490.7796 -1588.7791   467.0770 H6            1 RES     
   30236 H6        1492.6942 -1587.5234   469.1184 H6            1 RES     
   30237 H6        1490.8669 -1587.3766   469.0970 H6            1 RES     
   30238 H6        1490.6841 -1589.8146   469.4674 H6            1 RES     
   30239 H6        1492.4889 -1589.9606   469.4547 H6            1 RES     
   30240 H6        1492.6450 -1588.3980   471.4011 H6            1 RES     
   30241 H6        1490.8429 -1588.2428   471.4060 H6            1 RES     
   30242 H6        1490.6411 -1590.7051   471.8776 H6            1 RES     
   30243 H6        1492.4353 -1590.8588   471.8057 H6            1 RES     
   30244 H6        1492.6928 -1589.3574   473.7673 H6            1 RES     
   30245 H6        1491.6975 -1590.8161   474.1245 H6            1 RES     
   30246 H6        1489.5972 -1589.4575   473.8820 H6            1 RES     
   30247 H6        1490.5906 -1587.9751   473.5906 H6            1 RES     
   30248 H6        1489.8600 -1588.0919   475.9385 H6            1 RES     
   30249 H6        1490.6550 -1589.7002   476.1368 H6            1 RES     
   30250 H6        1491.6567 -1588.2233   475.8238 H6            1 RES     
   30251 H5           5.9255    11.1417    11.2654 H5            1 RES     
   30252 H5        1496.8720 -1585.7742   474.1592 H5            1 RES     
@<TRIPOS>BOND
       1        1        2 1
       2        1        8 1
       3        1       24 1
       4        1       73 1
       5        2        3 1
       6        2        6 1
       7        3        4 1
       8        3        7 1
       9        4        5 1
      10        5        6 1
      11        5    30251 1
      12        6       12 1
      13        7        8 1
      14        7       11 1
      15        8        9 1
      16        9       10 1
      17        9       13 1
      18       10       11 1
      19       10       16 1
      20       14       15 1
      21       14       22 1
      22       15       16 1
      23       15       23 1
      24       16       17 1
      25       17       18 1
      26       17       21 1
      27       18       19 1
      28       19       20 1
      29       20       21 1
      30       21       22 1
      31       22      126 1
      32       24       25 1
      33       24       40 1
      34       24       41 1
      35       25       26 1
      36       25       32 1
      37       25       42 1
      38       26       27 1
      39       26       43 1
      40       26       44 1
      41       27       28 1
      42       27       45 1
      43       27       46 1
      44       28       29 1
      45       28       47 1
      46       28       48 1
      47       29       30 1
      48       29       49 1
      49       29       50 1
      50       30       31 1
      51       30       51 1
      52       30       52 1
      53       31       53 1
      54       31       54 1
      55       31       55 1
      56       32       33 1
      57       32       56 1
      58       32       57 1
      59       33       34 1
      60       33       58 1
      61       33       59 1
      62       34       35 1
      63       34       60 1
      64       34       61 1
      65       35       36 1
      66       35       62 1
      67       35       63 1
      68       36       37 1
      69       36       64 1
      70       36       65 1
      71       37       38 1
      72       37       66 1
      73       37       67 1
      74       38       39 1
      75       38       68 1
      76       38       69 1
      77       39       70 1
      78       39       71 1
      79       39       72 1
      80       73       74 1
      81       73       89 1
      82       73       90 1
      83       74       75 1
      84       74       81 1
      85       74       91 1
      86       75       76 1
      87       75       92 1
      88       75       93 1
      89       76       77 1
      90       76       94 1
      91       76       95 1
      92       77       78 1
      93       77       96 1
      94       77       97 1
      95       78       79 1
      96       78       98 1
      97       78       99 1
      98       79       80 1
      99       79      100 1
     100       79      101 1
     101       80      102 1
     102       80      103 1
     103       80      104 1
     104       81       82 1
     105       81      105 1
     106       81      106 1
     107       82       83 1
     108       82      107 1
     109       82      108 1
     110       83       84 1
     111       83      109 1
     112       83      110 1
     113       84       85 1
     114       84      111 1
     115       84      112 1
     116       85       86 1
     117       85      113 1
     118       85      114 1
     119       86       87 1
     120       86      115 1
     121       86      116 1
     122       87       88 1
     123       87      117 1
     124       87      118 1
     125       88      119 1
     126       88      120 1
     127       88      121 1
     128      122      123 1
     129      122      129 1
     130      122      145 1
     131      122      194 1
     132      123      124 1
     133      123      127 1
     134      124      125 1
     135      124      128 1
     136      125      126 1
     137      126      127 1
     138      127      133 1
     139      128      129 1
     140      128      132 1
     141      129      130 1
     142      130      131 1
     143      130      134 1
     144      131      132 1
     145      131      137 1
     146      135      136 1
     147      135      143 1
     148      136      137 1
     149      136      144 1
     150      137      138 1
     151      138      139 1
     152      138      142 1
     153      139      140 1
     154      140      141 1
     155      141      142 1
     156      142      143 1
     157      143      247 1
     158      145      146 1
     159      145      161 1
     160      145      162 1
     161      146      147 1
     162      146      153 1
     163      146      163 1
     164      147      148 1
     165      147      164 1
     166      147      165 1
     167      148      149 1
     168      148      166 1
     169      148      167 1
     170      149      150 1
     171      149      168 1
     172      149      169 1
     173      150      151 1
     174      150      170 1
     175      150      171 1
     176      151      152 1
     177      151      172 1
     178      151      173 1
     179      152      174 1
     180      152      175 1
     181      152      176 1
     182      153      154 1
     183      153      177 1
     184      153      178 1
     185      154      155 1
     186      154      179 1
     187      154      180 1
     188      155      156 1
     189      155      181 1
     190      155      182 1
     191      156      157 1
     192      156      183 1
     193      156      184 1
     194      157      158 1
     195      157      185 1
     196      157      186 1
     197      158      159 1
     198      158      187 1
     199      158      188 1
     200      159      160 1
     201      159      189 1
     202      159      190 1
     203      160      191 1
     204      160      192 1
     205      160      193 1
     206      194      195 1
     207      194      210 1
     208      194      211 1
     209      195      196 1
     210      195      202 1
     211      195      212 1
     212      196      197 1
     213      196      213 1
     214      196      214 1
     215      197      198 1
     216      197      215 1
     217      197      216 1
     218      198      199 1
     219      198      217 1
     220      198      218 1
     221      199      200 1
     222      199      219 1
     223      199      220 1
     224      200      201 1
     225      200      221 1
     226      200      222 1
     227      201      223 1
     228      201      224 1
     229      201      225 1
     230      202      203 1
     231      202      226 1
     232      202      227 1
     233      203      204 1
     234      203      228 1
     235      203      229 1
     236      204      205 1
     237      204      230 1
     238      204      231 1
     239      205      206 1
     240      205      232 1
     241      205      233 1
     242      206      207 1
     243      206      234 1
     244      206      235 1
     245      207      208 1
     246      207      236 1
     247      207      237 1
     248      208      209 1
     249      208      238 1
     250      208      239 1
     251      209      240 1
     252      209      241 1
     253      209      242 1
     254      243      244 1
     255      243      250 1
     256      243      266 1
     257      243      315 1
     258      244      245 1
     259      244      248 1
     260      245      246 1
     261      245      249 1
     262      246      247 1
     263      247      248 1
     264      248      254 1
     265      249      250 1
     266      249      253 1
     267      250      251 1
     268      251      252 1
     269      251      255 1
     270      252      253 1
     271      252      258 1
     272      256      257 1
     273      256      264 1
     274      257      258 1
     275      257      265 1
     276      258      259 1
     277      259      260 1
     278      259      263 1
     279      260      261 1
     280      261      262 1
     281      262      263 1
     282      263      264 1
     283      264      368 1
     284      266      267 1
     285      266      282 1
     286      266      283 1
     287      267      268 1
     288      267      274 1
     289      267      284 1
     290      268      269 1
     291      268      285 1
     292      268      286 1
     293      269      270 1
     294      269      287 1
     295      269      288 1
     296      270      271 1
     297      270      289 1
     298      270      290 1
     299      271      272 1
     300      271      291 1
     301      271      292 1
     302      272      273 1
     303      272      293 1
     304      272      294 1
     305      273      295 1
     306      273      296 1
     307      273      297 1
     308      274      275 1
     309      274      298 1
     310      274      299 1
     311      275      276 1
     312      275      300 1
     313      275      301 1
     314      276      277 1
     315      276      302 1
     316      276      303 1
     317      277      278 1
     318      277      304 1
     319      277      305 1
     320      278      279 1
     321      278      306 1
     322      278      307 1
     323      279      280 1
     324      279      308 1
     325      279      309 1
     326      280      281 1
     327      280      310 1
     328      280      311 1
     329      281      312 1
     330      281      313 1
     331      281      314 1
     332      315      316 1
     333      315      331 1
     334      315      332 1
     335      316      317 1
     336      316      323 1
     337      316      333 1
     338      317      318 1
     339      317      334 1
     340      317      335 1
     341      318      319 1
     342      318      336 1
     343      318      337 1
     344      319      320 1
     345      319      338 1
     346      319      339 1
     347      320      321 1
     348      320      340 1
     349      320      341 1
     350      321      322 1
     351      321      342 1
     352      321      343 1
     353      322      344 1
     354      322      345 1
     355      322      346 1
     356      323      324 1
     357      323      347 1
     358      323      348 1
     359      324      325 1
     360      324      349 1
     361      324      350 1
     362      325      326 1
     363      325      351 1
     364      325      352 1
     365      326      327 1
     366      326      353 1
     367      326      354 1
     368      327      328 1
     369      327      355 1
     370      327      356 1
     371      328      329 1
     372      328      357 1
     373      328      358 1
     374      329      330 1
     375      329      359 1
     376      329      360 1
     377      330      361 1
     378      330      362 1
     379      330      363 1
     380      364      365 1
     381      364      371 1
     382      364      387 1
     383      364      436 1
     384      365      366 1
     385      365      369 1
     386      366      367 1
     387      366      370 1
     388      367      368 1
     389      368      369 1
     390      369      375 1
     391      370      371 1
     392      370      374 1
     393      371      372 1
     394      372      373 1
     395      372      376 1
     396      373      374 1
     397      373      379 1
     398      377      378 1
     399      377      385 1
     400      378      379 1
     401      378      386 1
     402      379      380 1
     403      380      381 1
     404      380      384 1
     405      381      382 1
     406      382      383 1
     407      383      384 1
     408      384      385 1
     409      385      489 1
     410      387      388 1
     411      387      403 1
     412      387      404 1
     413      388      389 1
     414      388      395 1
     415      388      405 1
     416      389      390 1
     417      389      406 1
     418      389      407 1
     419      390      391 1
     420      390      408 1
     421      390      409 1
     422      391      392 1
     423      391      410 1
     424      391      411 1
     425      392      393 1
     426      392      412 1
     427      392      413 1
     428      393      394 1
     429      393      414 1
     430      393      415 1
     431      394      416 1
     432      394      417 1
     433      394      418 1
     434      395      396 1
     435      395      419 1
     436      395      420 1
     437      396      397 1
     438      396      421 1
     439      396      422 1
     440      397      398 1
     441      397      423 1
     442      397      424 1
     443      398      399 1
     444      398      425 1
     445      398      426 1
     446      399      400 1
     447      399      427 1
     448      399      428 1
     449      400      401 1
     450      400      429 1
     451      400      430 1
     452      401      402 1
     453      401      431 1
     454      401      432 1
     455      402      433 1
     456      402      434 1
     457      402      435 1
     458      436      437 1
     459      436      452 1
     460      436      453 1
     461      437      438 1
     462      437      444 1
     463      437      454 1
     464      438      439 1
     465      438      455 1
     466      438      456 1
     467      439      440 1
     468      439      457 1
     469      439      458 1
     470      440      441 1
     471      440      459 1
     472      440      460 1
     473      441      442 1
     474      441      461 1
     475      441      462 1
     476      442      443 1
     477      442      463 1
     478      442      464 1
     479      443      465 1
     480      443      466 1
     481      443      467 1
     482      444      445 1
     483      444      468 1
     484      444      469 1
     485      445      446 1
     486      445      470 1
     487      445      471 1
     488      446      447 1
     489      446      472 1
     490      446      473 1
     491      447      448 1
     492      447      474 1
     493      447      475 1
     494      448      449 1
     495      448      476 1
     496      448      477 1
     497      449      450 1
     498      449      478 1
     499      449      479 1
     500      450      451 1
     501      450      480 1
     502      450      481 1
     503      451      482 1
     504      451      483 1
     505      451      484 1
     506      485      486 1
     507      485      492 1
     508      485      508 1
     509      485      557 1
     510      486      487 1
     511      486      490 1
     512      487      488 1
     513      487      491 1
     514      488      489 1
     515      489      490 1
     516      490      496 1
     517      491      492 1
     518      491      495 1
     519      492      493 1
     520      493      494 1
     521      493      497 1
     522      494      495 1
     523      494      500 1
     524      498      499 1
     525      498      506 1
     526      499      500 1
     527      499      507 1
     528      500      501 1
     529      501      502 1
     530      501      505 1
     531      502      503 1
     532      503      504 1
     533      504      505 1
     534      505      506 1
     535      506      610 1
     536      508      509 1
     537      508      524 1
     538      508      525 1
     539      509      510 1
     540      509      516 1
     541      509      526 1
     542      510      511 1
     543      510      527 1
     544      510      528 1
     545      511      512 1
     546      511      529 1
     547      511      530 1
     548      512      513 1
     549      512      531 1
     550      512      532 1
     551      513      514 1
     552      513      533 1
     553      513      534 1
     554      514      515 1
     555      514      535 1
     556      514      536 1
     557      515      537 1
     558      515      538 1
     559      515      539 1
     560      516      517 1
     561      516      540 1
     562      516      541 1
     563      517      518 1
     564      517      542 1
     565      517      543 1
     566      518      519 1
     567      518      544 1
     568      518      545 1
     569      519      520 1
     570      519      546 1
     571      519      547 1
     572      520      521 1
     573      520      548 1
     574      520      549 1
     575      521      522 1
     576      521      550 1
     577      521      551 1
     578      522      523 1
     579      522      552 1
     580      522      553 1
     581      523      554 1
     582      523      555 1
     583      523      556 1
     584      557      558 1
     585      557      573 1
     586      557      574 1
     587      558      559 1
     588      558      565 1
     589      558      575 1
     590      559      560 1
     591      559      576 1
     592      559      577 1
     593      560      561 1
     594      560      578 1
     595      560      579 1
     596      561      562 1
     597      561      580 1
     598      561      581 1
     599      562      563 1
     600      562      582 1
     601      562      583 1
     602      563      564 1
     603      563      584 1
     604      563      585 1
     605      564      586 1
     606      564      587 1
     607      564      588 1
     608      565      566 1
     609      565      589 1
     610      565      590 1
     611      566      567 1
     612      566      591 1
     613      566      592 1
     614      567      568 1
     615      567      593 1
     616      567      594 1
     617      568      569 1
     618      568      595 1
     619      568      596 1
     620      569      570 1
     621      569      597 1
     622      569      598 1
     623      570      571 1
     624      570      599 1
     625      570      600 1
     626      571      572 1
     627      571      601 1
     628      571      602 1
     629      572      603 1
     630      572      604 1
     631      572      605 1
     632      606      607 1
     633      606      613 1
     634      606      629 1
     635      606      678 1
     636      607      608 1
     637      607      611 1
     638      608      609 1
     639      608      612 1
     640      609      610 1
     641      610      611 1
     642      611      617 1
     643      612      613 1
     644      612      616 1
     645      613      614 1
     646      614      615 1
     647      614      618 1
     648      615      616 1
     649      615      621 1
     650      619      620 1
     651      619      627 1
     652      620      621 1
     653      620      628 1
     654      621      622 1
     655      622      623 1
     656      622      626 1
     657      623      624 1
     658      624      625 1
     659      625      626 1
     660      626      627 1
     661      627      731 1
     662      629      630 1
     663      629      645 1
     664      629      646 1
     665      630      631 1
     666      630      637 1
     667      630      647 1
     668      631      632 1
     669      631      648 1
     670      631      649 1
     671      632      633 1
     672      632      650 1
     673      632      651 1
     674      633      634 1
     675      633      652 1
     676      633      653 1
     677      634      635 1
     678      634      654 1
     679      634      655 1
     680      635      636 1
     681      635      656 1
     682      635      657 1
     683      636      658 1
     684      636      659 1
     685      636      660 1
     686      637      638 1
     687      637      661 1
     688      637      662 1
     689      638      639 1
     690      638      663 1
     691      638      664 1
     692      639      640 1
     693      639      665 1
     694      639      666 1
     695      640      641 1
     696      640      667 1
     697      640      668 1
     698      641      642 1
     699      641      669 1
     700      641      670 1
     701      642      643 1
     702      642      671 1
     703      642      672 1
     704      643      644 1
     705      643      673 1
     706      643      674 1
     707      644      675 1
     708      644      676 1
     709      644      677 1
     710      678      679 1
     711      678      694 1
     712      678      695 1
     713      679      680 1
     714      679      686 1
     715      679      696 1
     716      680      681 1
     717      680      697 1
     718      680      698 1
     719      681      682 1
     720      681      699 1
     721      681      700 1
     722      682      683 1
     723      682      701 1
     724      682      702 1
     725      683      684 1
     726      683      703 1
     727      683      704 1
     728      684      685 1
     729      684      705 1
     730      684      706 1
     731      685      707 1
     732      685      708 1
     733      685      709 1
     734      686      687 1
     735      686      710 1
     736      686      711 1
     737      687      688 1
     738      687      712 1
     739      687      713 1
     740      688      689 1
     741      688      714 1
     742      688      715 1
     743      689      690 1
     744      689      716 1
     745      689      717 1
     746      690      691 1
     747      690      718 1
     748      690      719 1
     749      691      692 1
     750      691      720 1
     751      691      721 1
     752      692      693 1
     753      692      722 1
     754      692      723 1
     755      693      724 1
     756      693      725 1
     757      693      726 1
     758      727      728 1
     759      727      734 1
     760      727      750 1
     761      727      799 1
     762      728      729 1
     763      728      732 1
     764      729      730 1
     765      729      733 1
     766      730      731 1
     767      731      732 1
     768      732      738 1
     769      733      734 1
     770      733      737 1
     771      734      735 1
     772      735      736 1
     773      735      739 1
     774      736      737 1
     775      736      742 1
     776      740      741 1
     777      740      748 1
     778      741      742 1
     779      741      749 1
     780      742      743 1
     781      743      744 1
     782      743      747 1
     783      744      745 1
     784      745      746 1
     785      746      747 1
     786      747      748 1
     787      748      852 1
     788      750      751 1
     789      750      766 1
     790      750      767 1
     791      751      752 1
     792      751      758 1
     793      751      768 1
     794      752      753 1
     795      752      769 1
     796      752      770 1
     797      753      754 1
     798      753      771 1
     799      753      772 1
     800      754      755 1
     801      754      773 1
     802      754      774 1
     803      755      756 1
     804      755      775 1
     805      755      776 1
     806      756      757 1
     807      756      777 1
     808      756      778 1
     809      757      779 1
     810      757      780 1
     811      757      781 1
     812      758      759 1
     813      758      782 1
     814      758      783 1
     815      759      760 1
     816      759      784 1
     817      759      785 1
     818      760      761 1
     819      760      786 1
     820      760      787 1
     821      761      762 1
     822      761      788 1
     823      761      789 1
     824      762      763 1
     825      762      790 1
     826      762      791 1
     827      763      764 1
     828      763      792 1
     829      763      793 1
     830      764      765 1
     831      764      794 1
     832      764      795 1
     833      765      796 1
     834      765      797 1
     835      765      798 1
     836      799      800 1
     837      799      815 1
     838      799      816 1
     839      800      801 1
     840      800      807 1
     841      800      817 1
     842      801      802 1
     843      801      818 1
     844      801      819 1
     845      802      803 1
     846      802      820 1
     847      802      821 1
     848      803      804 1
     849      803      822 1
     850      803      823 1
     851      804      805 1
     852      804      824 1
     853      804      825 1
     854      805      806 1
     855      805      826 1
     856      805      827 1
     857      806      828 1
     858      806      829 1
     859      806      830 1
     860      807      808 1
     861      807      831 1
     862      807      832 1
     863      808      809 1
     864      808      833 1
     865      808      834 1
     866      809      810 1
     867      809      835 1
     868      809      836 1
     869      810      811 1
     870      810      837 1
     871      810      838 1
     872      811      812 1
     873      811      839 1
     874      811      840 1
     875      812      813 1
     876      812      841 1
     877      812      842 1
     878      813      814 1
     879      813      843 1
     880      813      844 1
     881      814      845 1
     882      814      846 1
     883      814      847 1
     884      848      849 1
     885      848      855 1
     886      848      871 1
     887      848      920 1
     888      849      850 1
     889      849      853 1
     890      850      851 1
     891      850      854 1
     892      851      852 1
     893      852      853 1
     894      853      859 1
     895      854      855 1
     896      854      858 1
     897      855      856 1
     898      856      857 1
     899      856      860 1
     900      857      858 1
     901      857      863 1
     902      861      862 1
     903      861      869 1
     904      862      863 1
     905      862      870 1
     906      863      864 1
     907      864      865 1
     908      864      868 1
     909      865      866 1
     910      866      867 1
     911      867      868 1
     912      868      869 1
     913      869      973 1
     914      871      872 1
     915      871      887 1
     916      871      888 1
     917      872      873 1
     918      872      879 1
     919      872      889 1
     920      873      874 1
     921      873      890 1
     922      873      891 1
     923      874      875 1
     924      874      892 1
     925      874      893 1
     926      875      876 1
     927      875      894 1
     928      875      895 1
     929      876      877 1
     930      876      896 1
     931      876      897 1
     932      877      878 1
     933      877      898 1
     934      877      899 1
     935      878      900 1
     936      878      901 1
     937      878      902 1
     938      879      880 1
     939      879      903 1
     940      879      904 1
     941      880      881 1
     942      880      905 1
     943      880      906 1
     944      881      882 1
     945      881      907 1
     946      881      908 1
     947      882      883 1
     948      882      909 1
     949      882      910 1
     950      883      884 1
     951      883      911 1
     952      883      912 1
     953      884      885 1
     954      884      913 1
     955      884      914 1
     956      885      886 1
     957      885      915 1
     958      885      916 1
     959      886      917 1
     960      886      918 1
     961      886      919 1
     962      920      921 1
     963      920      936 1
     964      920      937 1
     965      921      922 1
     966      921      928 1
     967      921      938 1
     968      922      923 1
     969      922      939 1
     970      922      940 1
     971      923      924 1
     972      923      941 1
     973      923      942 1
     974      924      925 1
     975      924      943 1
     976      924      944 1
     977      925      926 1
     978      925      945 1
     979      925      946 1
     980      926      927 1
     981      926      947 1
     982      926      948 1
     983      927      949 1
     984      927      950 1
     985      927      951 1
     986      928      929 1
     987      928      952 1
     988      928      953 1
     989      929      930 1
     990      929      954 1
     991      929      955 1
     992      930      931 1
     993      930      956 1
     994      930      957 1
     995      931      932 1
     996      931      958 1
     997      931      959 1
     998      932      933 1
     999      932      960 1
    1000      932      961 1
    1001      933      934 1
    1002      933      962 1
    1003      933      963 1
    1004      934      935 1
    1005      934      964 1
    1006      934      965 1
    1007      935      966 1
    1008      935      967 1
    1009      935      968 1
    1010      969      970 1
    1011      969      976 1
    1012      969      992 1
    1013      969     1041 1
    1014      970      971 1
    1015      970      974 1
    1016      971      972 1
    1017      971      975 1
    1018      972      973 1
    1019      973      974 1
    1020      974      980 1
    1021      975      976 1
    1022      975      979 1
    1023      976      977 1
    1024      977      978 1
    1025      977      981 1
    1026      978      979 1
    1027      978      984 1
    1028      982      983 1
    1029      982      990 1
    1030      983      984 1
    1031      983      991 1
    1032      984      985 1
    1033      985      986 1
    1034      985      989 1
    1035      986      987 1
    1036      987      988 1
    1037      988      989 1
    1038      989      990 1
    1039      990     1094 1
    1040      992      993 1
    1041      992     1008 1
    1042      992     1009 1
    1043      993      994 1
    1044      993     1000 1
    1045      993     1010 1
    1046      994      995 1
    1047      994     1011 1
    1048      994     1012 1
    1049      995      996 1
    1050      995     1013 1
    1051      995     1014 1
    1052      996      997 1
    1053      996     1015 1
    1054      996     1016 1
    1055      997      998 1
    1056      997     1017 1
    1057      997     1018 1
    1058      998      999 1
    1059      998     1019 1
    1060      998     1020 1
    1061      999     1021 1
    1062      999     1022 1
    1063      999     1023 1
    1064     1000     1001 1
    1065     1000     1024 1
    1066     1000     1025 1
    1067     1001     1002 1
    1068     1001     1026 1
    1069     1001     1027 1
    1070     1002     1003 1
    1071     1002     1028 1
    1072     1002     1029 1
    1073     1003     1004 1
    1074     1003     1030 1
    1075     1003     1031 1
    1076     1004     1005 1
    1077     1004     1032 1
    1078     1004     1033 1
    1079     1005     1006 1
    1080     1005     1034 1
    1081     1005     1035 1
    1082     1006     1007 1
    1083     1006     1036 1
    1084     1006     1037 1
    1085     1007     1038 1
    1086     1007     1039 1
    1087     1007     1040 1
    1088     1041     1042 1
    1089     1041     1057 1
    1090     1041     1058 1
    1091     1042     1043 1
    1092     1042     1049 1
    1093     1042     1059 1
    1094     1043     1044 1
    1095     1043     1060 1
    1096     1043     1061 1
    1097     1044     1045 1
    1098     1044     1062 1
    1099     1044     1063 1
    1100     1045     1046 1
    1101     1045     1064 1
    1102     1045     1065 1
    1103     1046     1047 1
    1104     1046     1066 1
    1105     1046     1067 1
    1106     1047     1048 1
    1107     1047     1068 1
    1108     1047     1069 1
    1109     1048     1070 1
    1110     1048     1071 1
    1111     1048     1072 1
    1112     1049     1050 1
    1113     1049     1073 1
    1114     1049     1074 1
    1115     1050     1051 1
    1116     1050     1075 1
    1117     1050     1076 1
    1118     1051     1052 1
    1119     1051     1077 1
    1120     1051     1078 1
    1121     1052     1053 1
    1122     1052     1079 1
    1123     1052     1080 1
    1124     1053     1054 1
    1125     1053     1081 1
    1126     1053     1082 1
    1127     1054     1055 1
    1128     1054     1083 1
    1129     1054     1084 1
    1130     1055     1056 1
    1131     1055     1085 1
    1132     1055     1086 1
    1133     1056     1087 1
    1134     1056     1088 1
    1135     1056     1089 1
    1136     1090     1091 1
    1137     1090     1097 1
    1138     1090     1113 1
    1139     1090     1162 1
    1140     1091     1092 1
    1141     1091     1095 1
    1142     1092     1093 1
    1143     1092     1096 1
    1144     1093     1094 1
    1145     1094     1095 1
    1146     1095     1101 1
    1147     1096     1097 1
    1148     1096     1100 1
    1149     1097     1098 1
    1150     1098     1099 1
    1151     1098     1102 1
    1152     1099     1100 1
    1153     1099     1105 1
    1154     1103     1104 1
    1155     1103     1111 1
    1156     1104     1105 1
    1157     1104     1112 1
    1158     1105     1106 1
    1159     1106     1107 1
    1160     1106     1110 1
    1161     1107     1108 1
    1162     1108     1109 1
    1163     1109     1110 1
    1164     1110     1111 1
    1165     1111     1215 1
    1166     1113     1114 1
    1167     1113     1129 1
    1168     1113     1130 1
    1169     1114     1115 1
    1170     1114     1121 1
    1171     1114     1131 1
    1172     1115     1116 1
    1173     1115     1132 1
    1174     1115     1133 1
    1175     1116     1117 1
    1176     1116     1134 1
    1177     1116     1135 1
    1178     1117     1118 1
    1179     1117     1136 1
    1180     1117     1137 1
    1181     1118     1119 1
    1182     1118     1138 1
    1183     1118     1139 1
    1184     1119     1120 1
    1185     1119     1140 1
    1186     1119     1141 1
    1187     1120     1142 1
    1188     1120     1143 1
    1189     1120     1144 1
    1190     1121     1122 1
    1191     1121     1145 1
    1192     1121     1146 1
    1193     1122     1123 1
    1194     1122     1147 1
    1195     1122     1148 1
    1196     1123     1124 1
    1197     1123     1149 1
    1198     1123     1150 1
    1199     1124     1125 1
    1200     1124     1151 1
    1201     1124     1152 1
    1202     1125     1126 1
    1203     1125     1153 1
    1204     1125     1154 1
    1205     1126     1127 1
    1206     1126     1155 1
    1207     1126     1156 1
    1208     1127     1128 1
    1209     1127     1157 1
    1210     1127     1158 1
    1211     1128     1159 1
    1212     1128     1160 1
    1213     1128     1161 1
    1214     1162     1163 1
    1215     1162     1178 1
    1216     1162     1179 1
    1217     1163     1164 1
    1218     1163     1170 1
    1219     1163     1180 1
    1220     1164     1165 1
    1221     1164     1181 1
    1222     1164     1182 1
    1223     1165     1166 1
    1224     1165     1183 1
    1225     1165     1184 1
    1226     1166     1167 1
    1227     1166     1185 1
    1228     1166     1186 1
    1229     1167     1168 1
    1230     1167     1187 1
    1231     1167     1188 1
    1232     1168     1169 1
    1233     1168     1189 1
    1234     1168     1190 1
    1235     1169     1191 1
    1236     1169     1192 1
    1237     1169     1193 1
    1238     1170     1171 1
    1239     1170     1194 1
    1240     1170     1195 1
    1241     1171     1172 1
    1242     1171     1196 1
    1243     1171     1197 1
    1244     1172     1173 1
    1245     1172     1198 1
    1246     1172     1199 1
    1247     1173     1174 1
    1248     1173     1200 1
    1249     1173     1201 1
    1250     1174     1175 1
    1251     1174     1202 1
    1252     1174     1203 1
    1253     1175     1176 1
    1254     1175     1204 1
    1255     1175     1205 1
    1256     1176     1177 1
    1257     1176     1206 1
    1258     1176     1207 1
    1259     1177     1208 1
    1260     1177     1209 1
    1261     1177     1210 1
    1262     1211     1212 1
    1263     1211     1218 1
    1264     1211     1234 1
    1265     1211     1283 1
    1266     1212     1213 1
    1267     1212     1216 1
    1268     1213     1214 1
    1269     1213     1217 1
    1270     1214     1215 1
    1271     1215     1216 1
    1272     1216     1222 1
    1273     1217     1218 1
    1274     1217     1221 1
    1275     1218     1219 1
    1276     1219     1220 1
    1277     1219     1223 1
    1278     1220     1221 1
    1279     1220     1226 1
    1280     1224     1225 1
    1281     1224     1232 1
    1282     1225     1226 1
    1283     1225     1233 1
    1284     1226     1227 1
    1285     1227     1228 1
    1286     1227     1231 1
    1287     1228     1229 1
    1288     1229     1230 1
    1289     1230     1231 1
    1290     1231     1232 1
    1291     1232     1336 1
    1292     1234     1235 1
    1293     1234     1250 1
    1294     1234     1251 1
    1295     1235     1236 1
    1296     1235     1242 1
    1297     1235     1252 1
    1298     1236     1237 1
    1299     1236     1253 1
    1300     1236     1254 1
    1301     1237     1238 1
    1302     1237     1255 1
    1303     1237     1256 1
    1304     1238     1239 1
    1305     1238     1257 1
    1306     1238     1258 1
    1307     1239     1240 1
    1308     1239     1259 1
    1309     1239     1260 1
    1310     1240     1241 1
    1311     1240     1261 1
    1312     1240     1262 1
    1313     1241     1263 1
    1314     1241     1264 1
    1315     1241     1265 1
    1316     1242     1243 1
    1317     1242     1266 1
    1318     1242     1267 1
    1319     1243     1244 1
    1320     1243     1268 1
    1321     1243     1269 1
    1322     1244     1245 1
    1323     1244     1270 1
    1324     1244     1271 1
    1325     1245     1246 1
    1326     1245     1272 1
    1327     1245     1273 1
    1328     1246     1247 1
    1329     1246     1274 1
    1330     1246     1275 1
    1331     1247     1248 1
    1332     1247     1276 1
    1333     1247     1277 1
    1334     1248     1249 1
    1335     1248     1278 1
    1336     1248     1279 1
    1337     1249     1280 1
    1338     1249     1281 1
    1339     1249     1282 1
    1340     1283     1284 1
    1341     1283     1299 1
    1342     1283     1300 1
    1343     1284     1285 1
    1344     1284     1291 1
    1345     1284     1301 1
    1346     1285     1286 1
    1347     1285     1302 1
    1348     1285     1303 1
    1349     1286     1287 1
    1350     1286     1304 1
    1351     1286     1305 1
    1352     1287     1288 1
    1353     1287     1306 1
    1354     1287     1307 1
    1355     1288     1289 1
    1356     1288     1308 1
    1357     1288     1309 1
    1358     1289     1290 1
    1359     1289     1310 1
    1360     1289     1311 1
    1361     1290     1312 1
    1362     1290     1313 1
    1363     1290     1314 1
    1364     1291     1292 1
    1365     1291     1315 1
    1366     1291     1316 1
    1367     1292     1293 1
    1368     1292     1317 1
    1369     1292     1318 1
    1370     1293     1294 1
    1371     1293     1319 1
    1372     1293     1320 1
    1373     1294     1295 1
    1374     1294     1321 1
    1375     1294     1322 1
    1376     1295     1296 1
    1377     1295     1323 1
    1378     1295     1324 1
    1379     1296     1297 1
    1380     1296     1325 1
    1381     1296     1326 1
    1382     1297     1298 1
    1383     1297     1327 1
    1384     1297     1328 1
    1385     1298     1329 1
    1386     1298     1330 1
    1387     1298     1331 1
    1388     1332     1333 1
    1389     1332     1339 1
    1390     1332     1355 1
    1391     1332     1404 1
    1392     1333     1334 1
    1393     1333     1337 1
    1394     1334     1335 1
    1395     1334     1338 1
    1396     1335     1336 1
    1397     1336     1337 1
    1398     1337     1343 1
    1399     1338     1339 1
    1400     1338     1342 1
    1401     1339     1340 1
    1402     1340     1341 1
    1403     1340     1344 1
    1404     1341     1342 1
    1405     1341     1347 1
    1406     1345     1346 1
    1407     1345     1353 1
    1408     1346     1347 1
    1409     1346     1354 1
    1410     1347     1348 1
    1411     1348     1349 1
    1412     1348     1352 1
    1413     1349     1350 1
    1414     1350     1351 1
    1415     1351     1352 1
    1416     1352     1353 1
    1417     1353     1457 1
    1418     1355     1356 1
    1419     1355     1371 1
    1420     1355     1372 1
    1421     1356     1357 1
    1422     1356     1363 1
    1423     1356     1373 1
    1424     1357     1358 1
    1425     1357     1374 1
    1426     1357     1375 1
    1427     1358     1359 1
    1428     1358     1376 1
    1429     1358     1377 1
    1430     1359     1360 1
    1431     1359     1378 1
    1432     1359     1379 1
    1433     1360     1361 1
    1434     1360     1380 1
    1435     1360     1381 1
    1436     1361     1362 1
    1437     1361     1382 1
    1438     1361     1383 1
    1439     1362     1384 1
    1440     1362     1385 1
    1441     1362     1386 1
    1442     1363     1364 1
    1443     1363     1387 1
    1444     1363     1388 1
    1445     1364     1365 1
    1446     1364     1389 1
    1447     1364     1390 1
    1448     1365     1366 1
    1449     1365     1391 1
    1450     1365     1392 1
    1451     1366     1367 1
    1452     1366     1393 1
    1453     1366     1394 1
    1454     1367     1368 1
    1455     1367     1395 1
    1456     1367     1396 1
    1457     1368     1369 1
    1458     1368     1397 1
    1459     1368     1398 1
    1460     1369     1370 1
    1461     1369     1399 1
    1462     1369     1400 1
    1463     1370     1401 1
    1464     1370     1402 1
    1465     1370     1403 1
    1466     1404     1405 1
    1467     1404     1420 1
    1468     1404     1421 1
    1469     1405     1406 1
    1470     1405     1412 1
    1471     1405     1422 1
    1472     1406     1407 1
    1473     1406     1423 1
    1474     1406     1424 1
    1475     1407     1408 1
    1476     1407     1425 1
    1477     1407     1426 1
    1478     1408     1409 1
    1479     1408     1427 1
    1480     1408     1428 1
    1481     1409     1410 1
    1482     1409     1429 1
    1483     1409     1430 1
    1484     1410     1411 1
    1485     1410     1431 1
    1486     1410     1432 1
    1487     1411     1433 1
    1488     1411     1434 1
    1489     1411     1435 1
    1490     1412     1413 1
    1491     1412     1436 1
    1492     1412     1437 1
    1493     1413     1414 1
    1494     1413     1438 1
    1495     1413     1439 1
    1496     1414     1415 1
    1497     1414     1440 1
    1498     1414     1441 1
    1499     1415     1416 1
    1500     1415     1442 1
    1501     1415     1443 1
    1502     1416     1417 1
    1503     1416     1444 1
    1504     1416     1445 1
    1505     1417     1418 1
    1506     1417     1446 1
    1507     1417     1447 1
    1508     1418     1419 1
    1509     1418     1448 1
    1510     1418     1449 1
    1511     1419     1450 1
    1512     1419     1451 1
    1513     1419     1452 1
    1514     1453     1454 1
    1515     1453     1460 1
    1516     1453     1476 1
    1517     1453     1525 1
    1518     1454     1455 1
    1519     1454     1458 1
    1520     1455     1456 1
    1521     1455     1459 1
    1522     1456     1457 1
    1523     1457     1458 1
    1524     1458     1464 1
    1525     1459     1460 1
    1526     1459     1463 1
    1527     1460     1461 1
    1528     1461     1462 1
    1529     1461     1465 1
    1530     1462     1463 1
    1531     1462     1468 1
    1532     1466     1467 1
    1533     1466     1474 1
    1534     1467     1468 1
    1535     1467     1475 1
    1536     1468     1469 1
    1537     1469     1470 1
    1538     1469     1473 1
    1539     1470     1471 1
    1540     1471     1472 1
    1541     1472     1473 1
    1542     1473     1474 1
    1543     1474     1578 1
    1544     1476     1477 1
    1545     1476     1492 1
    1546     1476     1493 1
    1547     1477     1478 1
    1548     1477     1484 1
    1549     1477     1494 1
    1550     1478     1479 1
    1551     1478     1495 1
    1552     1478     1496 1
    1553     1479     1480 1
    1554     1479     1497 1
    1555     1479     1498 1
    1556     1480     1481 1
    1557     1480     1499 1
    1558     1480     1500 1
    1559     1481     1482 1
    1560     1481     1501 1
    1561     1481     1502 1
    1562     1482     1483 1
    1563     1482     1503 1
    1564     1482     1504 1
    1565     1483     1505 1
    1566     1483     1506 1
    1567     1483     1507 1
    1568     1484     1485 1
    1569     1484     1508 1
    1570     1484     1509 1
    1571     1485     1486 1
    1572     1485     1510 1
    1573     1485     1511 1
    1574     1486     1487 1
    1575     1486     1512 1
    1576     1486     1513 1
    1577     1487     1488 1
    1578     1487     1514 1
    1579     1487     1515 1
    1580     1488     1489 1
    1581     1488     1516 1
    1582     1488     1517 1
    1583     1489     1490 1
    1584     1489     1518 1
    1585     1489     1519 1
    1586     1490     1491 1
    1587     1490     1520 1
    1588     1490     1521 1
    1589     1491     1522 1
    1590     1491     1523 1
    1591     1491     1524 1
    1592     1525     1526 1
    1593     1525     1541 1
    1594     1525     1542 1
    1595     1526     1527 1
    1596     1526     1533 1
    1597     1526     1543 1
    1598     1527     1528 1
    1599     1527     1544 1
    1600     1527     1545 1
    1601     1528     1529 1
    1602     1528     1546 1
    1603     1528     1547 1
    1604     1529     1530 1
    1605     1529     1548 1
    1606     1529     1549 1
    1607     1530     1531 1
    1608     1530     1550 1
    1609     1530     1551 1
    1610     1531     1532 1
    1611     1531     1552 1
    1612     1531     1553 1
    1613     1532     1554 1
    1614     1532     1555 1
    1615     1532     1556 1
    1616     1533     1534 1
    1617     1533     1557 1
    1618     1533     1558 1
    1619     1534     1535 1
    1620     1534     1559 1
    1621     1534     1560 1
    1622     1535     1536 1
    1623     1535     1561 1
    1624     1535     1562 1
    1625     1536     1537 1
    1626     1536     1563 1
    1627     1536     1564 1
    1628     1537     1538 1
    1629     1537     1565 1
    1630     1537     1566 1
    1631     1538     1539 1
    1632     1538     1567 1
    1633     1538     1568 1
    1634     1539     1540 1
    1635     1539     1569 1
    1636     1539     1570 1
    1637     1540     1571 1
    1638     1540     1572 1
    1639     1540     1573 1
    1640     1574     1575 1
    1641     1574     1581 1
    1642     1574     1597 1
    1643     1574     1646 1
    1644     1575     1576 1
    1645     1575     1579 1
    1646     1576     1577 1
    1647     1576     1580 1
    1648     1577     1578 1
    1649     1578     1579 1
    1650     1579     1585 1
    1651     1580     1581 1
    1652     1580     1584 1
    1653     1581     1582 1
    1654     1582     1583 1
    1655     1582     1586 1
    1656     1583     1584 1
    1657     1583     1589 1
    1658     1587     1588 1
    1659     1587     1595 1
    1660     1588     1589 1
    1661     1588     1596 1
    1662     1589     1590 1
    1663     1590     1591 1
    1664     1590     1594 1
    1665     1591     1592 1
    1666     1592     1593 1
    1667     1593     1594 1
    1668     1594     1595 1
    1669     1595     1699 1
    1670     1597     1598 1
    1671     1597     1613 1
    1672     1597     1614 1
    1673     1598     1599 1
    1674     1598     1605 1
    1675     1598     1615 1
    1676     1599     1600 1
    1677     1599     1616 1
    1678     1599     1617 1
    1679     1600     1601 1
    1680     1600     1618 1
    1681     1600     1619 1
    1682     1601     1602 1
    1683     1601     1620 1
    1684     1601     1621 1
    1685     1602     1603 1
    1686     1602     1622 1
    1687     1602     1623 1
    1688     1603     1604 1
    1689     1603     1624 1
    1690     1603     1625 1
    1691     1604     1626 1
    1692     1604     1627 1
    1693     1604     1628 1
    1694     1605     1606 1
    1695     1605     1629 1
    1696     1605     1630 1
    1697     1606     1607 1
    1698     1606     1631 1
    1699     1606     1632 1
    1700     1607     1608 1
    1701     1607     1633 1
    1702     1607     1634 1
    1703     1608     1609 1
    1704     1608     1635 1
    1705     1608     1636 1
    1706     1609     1610 1
    1707     1609     1637 1
    1708     1609     1638 1
    1709     1610     1611 1
    1710     1610     1639 1
    1711     1610     1640 1
    1712     1611     1612 1
    1713     1611     1641 1
    1714     1611     1642 1
    1715     1612     1643 1
    1716     1612     1644 1
    1717     1612     1645 1
    1718     1646     1647 1
    1719     1646     1662 1
    1720     1646     1663 1
    1721     1647     1648 1
    1722     1647     1654 1
    1723     1647     1664 1
    1724     1648     1649 1
    1725     1648     1665 1
    1726     1648     1666 1
    1727     1649     1650 1
    1728     1649     1667 1
    1729     1649     1668 1
    1730     1650     1651 1
    1731     1650     1669 1
    1732     1650     1670 1
    1733     1651     1652 1
    1734     1651     1671 1
    1735     1651     1672 1
    1736     1652     1653 1
    1737     1652     1673 1
    1738     1652     1674 1
    1739     1653     1675 1
    1740     1653     1676 1
    1741     1653     1677 1
    1742     1654     1655 1
    1743     1654     1678 1
    1744     1654     1679 1
    1745     1655     1656 1
    1746     1655     1680 1
    1747     1655     1681 1
    1748     1656     1657 1
    1749     1656     1682 1
    1750     1656     1683 1
    1751     1657     1658 1
    1752     1657     1684 1
    1753     1657     1685 1
    1754     1658     1659 1
    1755     1658     1686 1
    1756     1658     1687 1
    1757     1659     1660 1
    1758     1659     1688 1
    1759     1659     1689 1
    1760     1660     1661 1
    1761     1660     1690 1
    1762     1660     1691 1
    1763     1661     1692 1
    1764     1661     1693 1
    1765     1661     1694 1
    1766     1695     1696 1
    1767     1695     1702 1
    1768     1695     1718 1
    1769     1695     1767 1
    1770     1696     1697 1
    1771     1696     1700 1
    1772     1697     1698 1
    1773     1697     1701 1
    1774     1698     1699 1
    1775     1699     1700 1
    1776     1700     1706 1
    1777     1701     1702 1
    1778     1701     1705 1
    1779     1702     1703 1
    1780     1703     1704 1
    1781     1703     1707 1
    1782     1704     1705 1
    1783     1704     1710 1
    1784     1708     1709 1
    1785     1708     1716 1
    1786     1709     1710 1
    1787     1709     1717 1
    1788     1710     1711 1
    1789     1711     1712 1
    1790     1711     1715 1
    1791     1712     1713 1
    1792     1713     1714 1
    1793     1714     1715 1
    1794     1715     1716 1
    1795     1716     1820 1
    1796     1718     1719 1
    1797     1718     1734 1
    1798     1718     1735 1
    1799     1719     1720 1
    1800     1719     1726 1
    1801     1719     1736 1
    1802     1720     1721 1
    1803     1720     1737 1
    1804     1720     1738 1
    1805     1721     1722 1
    1806     1721     1739 1
    1807     1721     1740 1
    1808     1722     1723 1
    1809     1722     1741 1
    1810     1722     1742 1
    1811     1723     1724 1
    1812     1723     1743 1
    1813     1723     1744 1
    1814     1724     1725 1
    1815     1724     1745 1
    1816     1724     1746 1
    1817     1725     1747 1
    1818     1725     1748 1
    1819     1725     1749 1
    1820     1726     1727 1
    1821     1726     1750 1
    1822     1726     1751 1
    1823     1727     1728 1
    1824     1727     1752 1
    1825     1727     1753 1
    1826     1728     1729 1
    1827     1728     1754 1
    1828     1728     1755 1
    1829     1729     1730 1
    1830     1729     1756 1
    1831     1729     1757 1
    1832     1730     1731 1
    1833     1730     1758 1
    1834     1730     1759 1
    1835     1731     1732 1
    1836     1731     1760 1
    1837     1731     1761 1
    1838     1732     1733 1
    1839     1732     1762 1
    1840     1732     1763 1
    1841     1733     1764 1
    1842     1733     1765 1
    1843     1733     1766 1
    1844     1767     1768 1
    1845     1767     1783 1
    1846     1767     1784 1
    1847     1768     1769 1
    1848     1768     1775 1
    1849     1768     1785 1
    1850     1769     1770 1
    1851     1769     1786 1
    1852     1769     1787 1
    1853     1770     1771 1
    1854     1770     1788 1
    1855     1770     1789 1
    1856     1771     1772 1
    1857     1771     1790 1
    1858     1771     1791 1
    1859     1772     1773 1
    1860     1772     1792 1
    1861     1772     1793 1
    1862     1773     1774 1
    1863     1773     1794 1
    1864     1773     1795 1
    1865     1774     1796 1
    1866     1774     1797 1
    1867     1774     1798 1
    1868     1775     1776 1
    1869     1775     1799 1
    1870     1775     1800 1
    1871     1776     1777 1
    1872     1776     1801 1
    1873     1776     1802 1
    1874     1777     1778 1
    1875     1777     1803 1
    1876     1777     1804 1
    1877     1778     1779 1
    1878     1778     1805 1
    1879     1778     1806 1
    1880     1779     1780 1
    1881     1779     1807 1
    1882     1779     1808 1
    1883     1780     1781 1
    1884     1780     1809 1
    1885     1780     1810 1
    1886     1781     1782 1
    1887     1781     1811 1
    1888     1781     1812 1
    1889     1782     1813 1
    1890     1782     1814 1
    1891     1782     1815 1
    1892     1816     1817 1
    1893     1816     1823 1
    1894     1816     1839 1
    1895     1816     1888 1
    1896     1817     1818 1
    1897     1817     1821 1
    1898     1818     1819 1
    1899     1818     1822 1
    1900     1819     1820 1
    1901     1820     1821 1
    1902     1821     1827 1
    1903     1822     1823 1
    1904     1822     1826 1
    1905     1823     1824 1
    1906     1824     1825 1
    1907     1824     1828 1
    1908     1825     1826 1
    1909     1825     1831 1
    1910     1829     1830 1
    1911     1829     1837 1
    1912     1830     1831 1
    1913     1830     1838 1
    1914     1831     1832 1
    1915     1832     1833 1
    1916     1832     1836 1
    1917     1833     1834 1
    1918     1834     1835 1
    1919     1835     1836 1
    1920     1836     1837 1
    1921     1837     1941 1
    1922     1839     1840 1
    1923     1839     1855 1
    1924     1839     1856 1
    1925     1840     1841 1
    1926     1840     1847 1
    1927     1840     1857 1
    1928     1841     1842 1
    1929     1841     1858 1
    1930     1841     1859 1
    1931     1842     1843 1
    1932     1842     1860 1
    1933     1842     1861 1
    1934     1843     1844 1
    1935     1843     1862 1
    1936     1843     1863 1
    1937     1844     1845 1
    1938     1844     1864 1
    1939     1844     1865 1
    1940     1845     1846 1
    1941     1845     1866 1
    1942     1845     1867 1
    1943     1846     1868 1
    1944     1846     1869 1
    1945     1846     1870 1
    1946     1847     1848 1
    1947     1847     1871 1
    1948     1847     1872 1
    1949     1848     1849 1
    1950     1848     1873 1
    1951     1848     1874 1
    1952     1849     1850 1
    1953     1849     1875 1
    1954     1849     1876 1
    1955     1850     1851 1
    1956     1850     1877 1
    1957     1850     1878 1
    1958     1851     1852 1
    1959     1851     1879 1
    1960     1851     1880 1
    1961     1852     1853 1
    1962     1852     1881 1
    1963     1852     1882 1
    1964     1853     1854 1
    1965     1853     1883 1
    1966     1853     1884 1
    1967     1854     1885 1
    1968     1854     1886 1
    1969     1854     1887 1
    1970     1888     1889 1
    1971     1888     1904 1
    1972     1888     1905 1
    1973     1889     1890 1
    1974     1889     1896 1
    1975     1889     1906 1
    1976     1890     1891 1
    1977     1890     1907 1
    1978     1890     1908 1
    1979     1891     1892 1
    1980     1891     1909 1
    1981     1891     1910 1
    1982     1892     1893 1
    1983     1892     1911 1
    1984     1892     1912 1
    1985     1893     1894 1
    1986     1893     1913 1
    1987     1893     1914 1
    1988     1894     1895 1
    1989     1894     1915 1
    1990     1894     1916 1
    1991     1895     1917 1
    1992     1895     1918 1
    1993     1895     1919 1
    1994     1896     1897 1
    1995     1896     1920 1
    1996     1896     1921 1
    1997     1897     1898 1
    1998     1897     1922 1
    1999     1897     1923 1
    2000     1898     1899 1
    2001     1898     1924 1
    2002     1898     1925 1
    2003     1899     1900 1
    2004     1899     1926 1
    2005     1899     1927 1
    2006     1900     1901 1
    2007     1900     1928 1
    2008     1900     1929 1
    2009     1901     1902 1
    2010     1901     1930 1
    2011     1901     1931 1
    2012     1902     1903 1
    2013     1902     1932 1
    2014     1902     1933 1
    2015     1903     1934 1
    2016     1903     1935 1
    2017     1903     1936 1
    2018     1937     1938 1
    2019     1937     1944 1
    2020     1937     1960 1
    2021     1937     2009 1
    2022     1938     1939 1
    2023     1938     1942 1
    2024     1939     1940 1
    2025     1939     1943 1
    2026     1940     1941 1
    2027     1941     1942 1
    2028     1942     1948 1
    2029     1943     1944 1
    2030     1943     1947 1
    2031     1944     1945 1
    2032     1945     1946 1
    2033     1945     1949 1
    2034     1946     1947 1
    2035     1946     1952 1
    2036     1950     1951 1
    2037     1950     1958 1
    2038     1951     1952 1
    2039     1951     1959 1
    2040     1952     1953 1
    2041     1953     1954 1
    2042     1953     1957 1
    2043     1954     1955 1
    2044     1955     1956 1
    2045     1956     1957 1
    2046     1957     1958 1
    2047     1958     2062 1
    2048     1960     1961 1
    2049     1960     1976 1
    2050     1960     1977 1
    2051     1961     1962 1
    2052     1961     1968 1
    2053     1961     1978 1
    2054     1962     1963 1
    2055     1962     1979 1
    2056     1962     1980 1
    2057     1963     1964 1
    2058     1963     1981 1
    2059     1963     1982 1
    2060     1964     1965 1
    2061     1964     1983 1
    2062     1964     1984 1
    2063     1965     1966 1
    2064     1965     1985 1
    2065     1965     1986 1
    2066     1966     1967 1
    2067     1966     1987 1
    2068     1966     1988 1
    2069     1967     1989 1
    2070     1967     1990 1
    2071     1967     1991 1
    2072     1968     1969 1
    2073     1968     1992 1
    2074     1968     1993 1
    2075     1969     1970 1
    2076     1969     1994 1
    2077     1969     1995 1
    2078     1970     1971 1
    2079     1970     1996 1
    2080     1970     1997 1
    2081     1971     1972 1
    2082     1971     1998 1
    2083     1971     1999 1
    2084     1972     1973 1
    2085     1972     2000 1
    2086     1972     2001 1
    2087     1973     1974 1
    2088     1973     2002 1
    2089     1973     2003 1
    2090     1974     1975 1
    2091     1974     2004 1
    2092     1974     2005 1
    2093     1975     2006 1
    2094     1975     2007 1
    2095     1975     2008 1
    2096     2009     2010 1
    2097     2009     2025 1
    2098     2009     2026 1
    2099     2010     2011 1
    2100     2010     2017 1
    2101     2010     2027 1
    2102     2011     2012 1
    2103     2011     2028 1
    2104     2011     2029 1
    2105     2012     2013 1
    2106     2012     2030 1
    2107     2012     2031 1
    2108     2013     2014 1
    2109     2013     2032 1
    2110     2013     2033 1
    2111     2014     2015 1
    2112     2014     2034 1
    2113     2014     2035 1
    2114     2015     2016 1
    2115     2015     2036 1
    2116     2015     2037 1
    2117     2016     2038 1
    2118     2016     2039 1
    2119     2016     2040 1
    2120     2017     2018 1
    2121     2017     2041 1
    2122     2017     2042 1
    2123     2018     2019 1
    2124     2018     2043 1
    2125     2018     2044 1
    2126     2019     2020 1
    2127     2019     2045 1
    2128     2019     2046 1
    2129     2020     2021 1
    2130     2020     2047 1
    2131     2020     2048 1
    2132     2021     2022 1
    2133     2021     2049 1
    2134     2021     2050 1
    2135     2022     2023 1
    2136     2022     2051 1
    2137     2022     2052 1
    2138     2023     2024 1
    2139     2023     2053 1
    2140     2023     2054 1
    2141     2024     2055 1
    2142     2024     2056 1
    2143     2024     2057 1
    2144     2058     2059 1
    2145     2058     2065 1
    2146     2058     2081 1
    2147     2058     2130 1
    2148     2059     2060 1
    2149     2059     2063 1
    2150     2060     2061 1
    2151     2060     2064 1
    2152     2061     2062 1
    2153     2062     2063 1
    2154     2063     2069 1
    2155     2064     2065 1
    2156     2064     2068 1
    2157     2065     2066 1
    2158     2066     2067 1
    2159     2066     2070 1
    2160     2067     2068 1
    2161     2067     2073 1
    2162     2071     2072 1
    2163     2071     2079 1
    2164     2072     2073 1
    2165     2072     2080 1
    2166     2073     2074 1
    2167     2074     2075 1
    2168     2074     2078 1
    2169     2075     2076 1
    2170     2076     2077 1
    2171     2077     2078 1
    2172     2078     2079 1
    2173     2079     2183 1
    2174     2081     2082 1
    2175     2081     2097 1
    2176     2081     2098 1
    2177     2082     2083 1
    2178     2082     2089 1
    2179     2082     2099 1
    2180     2083     2084 1
    2181     2083     2100 1
    2182     2083     2101 1
    2183     2084     2085 1
    2184     2084     2102 1
    2185     2084     2103 1
    2186     2085     2086 1
    2187     2085     2104 1
    2188     2085     2105 1
    2189     2086     2087 1
    2190     2086     2106 1
    2191     2086     2107 1
    2192     2087     2088 1
    2193     2087     2108 1
    2194     2087     2109 1
    2195     2088     2110 1
    2196     2088     2111 1
    2197     2088     2112 1
    2198     2089     2090 1
    2199     2089     2113 1
    2200     2089     2114 1
    2201     2090     2091 1
    2202     2090     2115 1
    2203     2090     2116 1
    2204     2091     2092 1
    2205     2091     2117 1
    2206     2091     2118 1
    2207     2092     2093 1
    2208     2092     2119 1
    2209     2092     2120 1
    2210     2093     2094 1
    2211     2093     2121 1
    2212     2093     2122 1
    2213     2094     2095 1
    2214     2094     2123 1
    2215     2094     2124 1
    2216     2095     2096 1
    2217     2095     2125 1
    2218     2095     2126 1
    2219     2096     2127 1
    2220     2096     2128 1
    2221     2096     2129 1
    2222     2130     2131 1
    2223     2130     2146 1
    2224     2130     2147 1
    2225     2131     2132 1
    2226     2131     2138 1
    2227     2131     2148 1
    2228     2132     2133 1
    2229     2132     2149 1
    2230     2132     2150 1
    2231     2133     2134 1
    2232     2133     2151 1
    2233     2133     2152 1
    2234     2134     2135 1
    2235     2134     2153 1
    2236     2134     2154 1
    2237     2135     2136 1
    2238     2135     2155 1
    2239     2135     2156 1
    2240     2136     2137 1
    2241     2136     2157 1
    2242     2136     2158 1
    2243     2137     2159 1
    2244     2137     2160 1
    2245     2137     2161 1
    2246     2138     2139 1
    2247     2138     2162 1
    2248     2138     2163 1
    2249     2139     2140 1
    2250     2139     2164 1
    2251     2139     2165 1
    2252     2140     2141 1
    2253     2140     2166 1
    2254     2140     2167 1
    2255     2141     2142 1
    2256     2141     2168 1
    2257     2141     2169 1
    2258     2142     2143 1
    2259     2142     2170 1
    2260     2142     2171 1
    2261     2143     2144 1
    2262     2143     2172 1
    2263     2143     2173 1
    2264     2144     2145 1
    2265     2144     2174 1
    2266     2144     2175 1
    2267     2145     2176 1
    2268     2145     2177 1
    2269     2145     2178 1
    2270     2179     2180 1
    2271     2179     2186 1
    2272     2179     2202 1
    2273     2179     2251 1
    2274     2180     2181 1
    2275     2180     2184 1
    2276     2181     2182 1
    2277     2181     2185 1
    2278     2182     2183 1
    2279     2183     2184 1
    2280     2184     2190 1
    2281     2185     2186 1
    2282     2185     2189 1
    2283     2186     2187 1
    2284     2187     2188 1
    2285     2187     2191 1
    2286     2188     2189 1
    2287     2188     2194 1
    2288     2192     2193 1
    2289     2192     2200 1
    2290     2193     2194 1
    2291     2193     2201 1
    2292     2194     2195 1
    2293     2195     2196 1
    2294     2195     2199 1
    2295     2196     2197 1
    2296     2197     2198 1
    2297     2198     2199 1
    2298     2199     2200 1
    2299     2200     2304 1
    2300     2202     2203 1
    2301     2202     2218 1
    2302     2202     2219 1
    2303     2203     2204 1
    2304     2203     2210 1
    2305     2203     2220 1
    2306     2204     2205 1
    2307     2204     2221 1
    2308     2204     2222 1
    2309     2205     2206 1
    2310     2205     2223 1
    2311     2205     2224 1
    2312     2206     2207 1
    2313     2206     2225 1
    2314     2206     2226 1
    2315     2207     2208 1
    2316     2207     2227 1
    2317     2207     2228 1
    2318     2208     2209 1
    2319     2208     2229 1
    2320     2208     2230 1
    2321     2209     2231 1
    2322     2209     2232 1
    2323     2209     2233 1
    2324     2210     2211 1
    2325     2210     2234 1
    2326     2210     2235 1
    2327     2211     2212 1
    2328     2211     2236 1
    2329     2211     2237 1
    2330     2212     2213 1
    2331     2212     2238 1
    2332     2212     2239 1
    2333     2213     2214 1
    2334     2213     2240 1
    2335     2213     2241 1
    2336     2214     2215 1
    2337     2214     2242 1
    2338     2214     2243 1
    2339     2215     2216 1
    2340     2215     2244 1
    2341     2215     2245 1
    2342     2216     2217 1
    2343     2216     2246 1
    2344     2216     2247 1
    2345     2217     2248 1
    2346     2217     2249 1
    2347     2217     2250 1
    2348     2251     2252 1
    2349     2251     2267 1
    2350     2251     2268 1
    2351     2252     2253 1
    2352     2252     2259 1
    2353     2252     2269 1
    2354     2253     2254 1
    2355     2253     2270 1
    2356     2253     2271 1
    2357     2254     2255 1
    2358     2254     2272 1
    2359     2254     2273 1
    2360     2255     2256 1
    2361     2255     2274 1
    2362     2255     2275 1
    2363     2256     2257 1
    2364     2256     2276 1
    2365     2256     2277 1
    2366     2257     2258 1
    2367     2257     2278 1
    2368     2257     2279 1
    2369     2258     2280 1
    2370     2258     2281 1
    2371     2258     2282 1
    2372     2259     2260 1
    2373     2259     2283 1
    2374     2259     2284 1
    2375     2260     2261 1
    2376     2260     2285 1
    2377     2260     2286 1
    2378     2261     2262 1
    2379     2261     2287 1
    2380     2261     2288 1
    2381     2262     2263 1
    2382     2262     2289 1
    2383     2262     2290 1
    2384     2263     2264 1
    2385     2263     2291 1
    2386     2263     2292 1
    2387     2264     2265 1
    2388     2264     2293 1
    2389     2264     2294 1
    2390     2265     2266 1
    2391     2265     2295 1
    2392     2265     2296 1
    2393     2266     2297 1
    2394     2266     2298 1
    2395     2266     2299 1
    2396     2300     2301 1
    2397     2300     2307 1
    2398     2300     2323 1
    2399     2300     2372 1
    2400     2301     2302 1
    2401     2301     2305 1
    2402     2302     2303 1
    2403     2302     2306 1
    2404     2303     2304 1
    2405     2304     2305 1
    2406     2305     2311 1
    2407     2306     2307 1
    2408     2306     2310 1
    2409     2307     2308 1
    2410     2308     2309 1
    2411     2308     2312 1
    2412     2309     2310 1
    2413     2309     2315 1
    2414     2313     2314 1
    2415     2313     2321 1
    2416     2314     2315 1
    2417     2314     2322 1
    2418     2315     2316 1
    2419     2316     2317 1
    2420     2316     2320 1
    2421     2317     2318 1
    2422     2318     2319 1
    2423     2319     2320 1
    2424     2320     2321 1
    2425     2321     2425 1
    2426     2323     2324 1
    2427     2323     2339 1
    2428     2323     2340 1
    2429     2324     2325 1
    2430     2324     2331 1
    2431     2324     2341 1
    2432     2325     2326 1
    2433     2325     2342 1
    2434     2325     2343 1
    2435     2326     2327 1
    2436     2326     2344 1
    2437     2326     2345 1
    2438     2327     2328 1
    2439     2327     2346 1
    2440     2327     2347 1
    2441     2328     2329 1
    2442     2328     2348 1
    2443     2328     2349 1
    2444     2329     2330 1
    2445     2329     2350 1
    2446     2329     2351 1
    2447     2330     2352 1
    2448     2330     2353 1
    2449     2330     2354 1
    2450     2331     2332 1
    2451     2331     2355 1
    2452     2331     2356 1
    2453     2332     2333 1
    2454     2332     2357 1
    2455     2332     2358 1
    2456     2333     2334 1
    2457     2333     2359 1
    2458     2333     2360 1
    2459     2334     2335 1
    2460     2334     2361 1
    2461     2334     2362 1
    2462     2335     2336 1
    2463     2335     2363 1
    2464     2335     2364 1
    2465     2336     2337 1
    2466     2336     2365 1
    2467     2336     2366 1
    2468     2337     2338 1
    2469     2337     2367 1
    2470     2337     2368 1
    2471     2338     2369 1
    2472     2338     2370 1
    2473     2338     2371 1
    2474     2372     2373 1
    2475     2372     2388 1
    2476     2372     2389 1
    2477     2373     2374 1
    2478     2373     2380 1
    2479     2373     2390 1
    2480     2374     2375 1
    2481     2374     2391 1
    2482     2374     2392 1
    2483     2375     2376 1
    2484     2375     2393 1
    2485     2375     2394 1
    2486     2376     2377 1
    2487     2376     2395 1
    2488     2376     2396 1
    2489     2377     2378 1
    2490     2377     2397 1
    2491     2377     2398 1
    2492     2378     2379 1
    2493     2378     2399 1
    2494     2378     2400 1
    2495     2379     2401 1
    2496     2379     2402 1
    2497     2379     2403 1
    2498     2380     2381 1
    2499     2380     2404 1
    2500     2380     2405 1
    2501     2381     2382 1
    2502     2381     2406 1
    2503     2381     2407 1
    2504     2382     2383 1
    2505     2382     2408 1
    2506     2382     2409 1
    2507     2383     2384 1
    2508     2383     2410 1
    2509     2383     2411 1
    2510     2384     2385 1
    2511     2384     2412 1
    2512     2384     2413 1
    2513     2385     2386 1
    2514     2385     2414 1
    2515     2385     2415 1
    2516     2386     2387 1
    2517     2386     2416 1
    2518     2386     2417 1
    2519     2387     2418 1
    2520     2387     2419 1
    2521     2387     2420 1
    2522     2421     2422 1
    2523     2421     2428 1
    2524     2421     2444 1
    2525     2421     2493 1
    2526     2422     2423 1
    2527     2422     2426 1
    2528     2423     2424 1
    2529     2423     2427 1
    2530     2424     2425 1
    2531     2425     2426 1
    2532     2426     2432 1
    2533     2427     2428 1
    2534     2427     2431 1
    2535     2428     2429 1
    2536     2429     2430 1
    2537     2429     2433 1
    2538     2430     2431 1
    2539     2430     2436 1
    2540     2434     2435 1
    2541     2434     2442 1
    2542     2435     2436 1
    2543     2435     2443 1
    2544     2436     2437 1
    2545     2437     2438 1
    2546     2437     2441 1
    2547     2438     2439 1
    2548     2439     2440 1
    2549     2440     2441 1
    2550     2441     2442 1
    2551     2442     2546 1
    2552     2444     2445 1
    2553     2444     2460 1
    2554     2444     2461 1
    2555     2445     2446 1
    2556     2445     2452 1
    2557     2445     2462 1
    2558     2446     2447 1
    2559     2446     2463 1
    2560     2446     2464 1
    2561     2447     2448 1
    2562     2447     2465 1
    2563     2447     2466 1
    2564     2448     2449 1
    2565     2448     2467 1
    2566     2448     2468 1
    2567     2449     2450 1
    2568     2449     2469 1
    2569     2449     2470 1
    2570     2450     2451 1
    2571     2450     2471 1
    2572     2450     2472 1
    2573     2451     2473 1
    2574     2451     2474 1
    2575     2451     2475 1
    2576     2452     2453 1
    2577     2452     2476 1
    2578     2452     2477 1
    2579     2453     2454 1
    2580     2453     2478 1
    2581     2453     2479 1
    2582     2454     2455 1
    2583     2454     2480 1
    2584     2454     2481 1
    2585     2455     2456 1
    2586     2455     2482 1
    2587     2455     2483 1
    2588     2456     2457 1
    2589     2456     2484 1
    2590     2456     2485 1
    2591     2457     2458 1
    2592     2457     2486 1
    2593     2457     2487 1
    2594     2458     2459 1
    2595     2458     2488 1
    2596     2458     2489 1
    2597     2459     2490 1
    2598     2459     2491 1
    2599     2459     2492 1
    2600     2493     2494 1
    2601     2493     2509 1
    2602     2493     2510 1
    2603     2494     2495 1
    2604     2494     2501 1
    2605     2494     2511 1
    2606     2495     2496 1
    2607     2495     2512 1
    2608     2495     2513 1
    2609     2496     2497 1
    2610     2496     2514 1
    2611     2496     2515 1
    2612     2497     2498 1
    2613     2497     2516 1
    2614     2497     2517 1
    2615     2498     2499 1
    2616     2498     2518 1
    2617     2498     2519 1
    2618     2499     2500 1
    2619     2499     2520 1
    2620     2499     2521 1
    2621     2500     2522 1
    2622     2500     2523 1
    2623     2500     2524 1
    2624     2501     2502 1
    2625     2501     2525 1
    2626     2501     2526 1
    2627     2502     2503 1
    2628     2502     2527 1
    2629     2502     2528 1
    2630     2503     2504 1
    2631     2503     2529 1
    2632     2503     2530 1
    2633     2504     2505 1
    2634     2504     2531 1
    2635     2504     2532 1
    2636     2505     2506 1
    2637     2505     2533 1
    2638     2505     2534 1
    2639     2506     2507 1
    2640     2506     2535 1
    2641     2506     2536 1
    2642     2507     2508 1
    2643     2507     2537 1
    2644     2507     2538 1
    2645     2508     2539 1
    2646     2508     2540 1
    2647     2508     2541 1
    2648     2542     2543 1
    2649     2542     2549 1
    2650     2542     2565 1
    2651     2542     2614 1
    2652     2543     2544 1
    2653     2543     2547 1
    2654     2544     2545 1
    2655     2544     2548 1
    2656     2545     2546 1
    2657     2546     2547 1
    2658     2547     2553 1
    2659     2548     2549 1
    2660     2548     2552 1
    2661     2549     2550 1
    2662     2550     2551 1
    2663     2550     2554 1
    2664     2551     2552 1
    2665     2551     2557 1
    2666     2555     2556 1
    2667     2555     2563 1
    2668     2556     2557 1
    2669     2556     2564 1
    2670     2557     2558 1
    2671     2558     2559 1
    2672     2558     2562 1
    2673     2559     2560 1
    2674     2560     2561 1
    2675     2561     2562 1
    2676     2562     2563 1
    2677     2563     2667 1
    2678     2565     2566 1
    2679     2565     2581 1
    2680     2565     2582 1
    2681     2566     2567 1
    2682     2566     2573 1
    2683     2566     2583 1
    2684     2567     2568 1
    2685     2567     2584 1
    2686     2567     2585 1
    2687     2568     2569 1
    2688     2568     2586 1
    2689     2568     2587 1
    2690     2569     2570 1
    2691     2569     2588 1
    2692     2569     2589 1
    2693     2570     2571 1
    2694     2570     2590 1
    2695     2570     2591 1
    2696     2571     2572 1
    2697     2571     2592 1
    2698     2571     2593 1
    2699     2572     2594 1
    2700     2572     2595 1
    2701     2572     2596 1
    2702     2573     2574 1
    2703     2573     2597 1
    2704     2573     2598 1
    2705     2574     2575 1
    2706     2574     2599 1
    2707     2574     2600 1
    2708     2575     2576 1
    2709     2575     2601 1
    2710     2575     2602 1
    2711     2576     2577 1
    2712     2576     2603 1
    2713     2576     2604 1
    2714     2577     2578 1
    2715     2577     2605 1
    2716     2577     2606 1
    2717     2578     2579 1
    2718     2578     2607 1
    2719     2578     2608 1
    2720     2579     2580 1
    2721     2579     2609 1
    2722     2579     2610 1
    2723     2580     2611 1
    2724     2580     2612 1
    2725     2580     2613 1
    2726     2614     2615 1
    2727     2614     2630 1
    2728     2614     2631 1
    2729     2615     2616 1
    2730     2615     2622 1
    2731     2615     2632 1
    2732     2616     2617 1
    2733     2616     2633 1
    2734     2616     2634 1
    2735     2617     2618 1
    2736     2617     2635 1
    2737     2617     2636 1
    2738     2618     2619 1
    2739     2618     2637 1
    2740     2618     2638 1
    2741     2619     2620 1
    2742     2619     2639 1
    2743     2619     2640 1
    2744     2620     2621 1
    2745     2620     2641 1
    2746     2620     2642 1
    2747     2621     2643 1
    2748     2621     2644 1
    2749     2621     2645 1
    2750     2622     2623 1
    2751     2622     2646 1
    2752     2622     2647 1
    2753     2623     2624 1
    2754     2623     2648 1
    2755     2623     2649 1
    2756     2624     2625 1
    2757     2624     2650 1
    2758     2624     2651 1
    2759     2625     2626 1
    2760     2625     2652 1
    2761     2625     2653 1
    2762     2626     2627 1
    2763     2626     2654 1
    2764     2626     2655 1
    2765     2627     2628 1
    2766     2627     2656 1
    2767     2627     2657 1
    2768     2628     2629 1
    2769     2628     2658 1
    2770     2628     2659 1
    2771     2629     2660 1
    2772     2629     2661 1
    2773     2629     2662 1
    2774     2663     2664 1
    2775     2663     2670 1
    2776     2663     2686 1
    2777     2663     2735 1
    2778     2664     2665 1
    2779     2664     2668 1
    2780     2665     2666 1
    2781     2665     2669 1
    2782     2666     2667 1
    2783     2667     2668 1
    2784     2668     2674 1
    2785     2669     2670 1
    2786     2669     2673 1
    2787     2670     2671 1
    2788     2671     2672 1
    2789     2671     2675 1
    2790     2672     2673 1
    2791     2672     2678 1
    2792     2676     2677 1
    2793     2676     2684 1
    2794     2677     2678 1
    2795     2677     2685 1
    2796     2678     2679 1
    2797     2679     2680 1
    2798     2679     2683 1
    2799     2680     2681 1
    2800     2681     2682 1
    2801     2682     2683 1
    2802     2683     2684 1
    2803     2684     2788 1
    2804     2686     2687 1
    2805     2686     2702 1
    2806     2686     2703 1
    2807     2687     2688 1
    2808     2687     2694 1
    2809     2687     2704 1
    2810     2688     2689 1
    2811     2688     2705 1
    2812     2688     2706 1
    2813     2689     2690 1
    2814     2689     2707 1
    2815     2689     2708 1
    2816     2690     2691 1
    2817     2690     2709 1
    2818     2690     2710 1
    2819     2691     2692 1
    2820     2691     2711 1
    2821     2691     2712 1
    2822     2692     2693 1
    2823     2692     2713 1
    2824     2692     2714 1
    2825     2693     2715 1
    2826     2693     2716 1
    2827     2693     2717 1
    2828     2694     2695 1
    2829     2694     2718 1
    2830     2694     2719 1
    2831     2695     2696 1
    2832     2695     2720 1
    2833     2695     2721 1
    2834     2696     2697 1
    2835     2696     2722 1
    2836     2696     2723 1
    2837     2697     2698 1
    2838     2697     2724 1
    2839     2697     2725 1
    2840     2698     2699 1
    2841     2698     2726 1
    2842     2698     2727 1
    2843     2699     2700 1
    2844     2699     2728 1
    2845     2699     2729 1
    2846     2700     2701 1
    2847     2700     2730 1
    2848     2700     2731 1
    2849     2701     2732 1
    2850     2701     2733 1
    2851     2701     2734 1
    2852     2735     2736 1
    2853     2735     2751 1
    2854     2735     2752 1
    2855     2736     2737 1
    2856     2736     2743 1
    2857     2736     2753 1
    2858     2737     2738 1
    2859     2737     2754 1
    2860     2737     2755 1
    2861     2738     2739 1
    2862     2738     2756 1
    2863     2738     2757 1
    2864     2739     2740 1
    2865     2739     2758 1
    2866     2739     2759 1
    2867     2740     2741 1
    2868     2740     2760 1
    2869     2740     2761 1
    2870     2741     2742 1
    2871     2741     2762 1
    2872     2741     2763 1
    2873     2742     2764 1
    2874     2742     2765 1
    2875     2742     2766 1
    2876     2743     2744 1
    2877     2743     2767 1
    2878     2743     2768 1
    2879     2744     2745 1
    2880     2744     2769 1
    2881     2744     2770 1
    2882     2745     2746 1
    2883     2745     2771 1
    2884     2745     2772 1
    2885     2746     2747 1
    2886     2746     2773 1
    2887     2746     2774 1
    2888     2747     2748 1
    2889     2747     2775 1
    2890     2747     2776 1
    2891     2748     2749 1
    2892     2748     2777 1
    2893     2748     2778 1
    2894     2749     2750 1
    2895     2749     2779 1
    2896     2749     2780 1
    2897     2750     2781 1
    2898     2750     2782 1
    2899     2750     2783 1
    2900     2784     2785 1
    2901     2784     2791 1
    2902     2784     2807 1
    2903     2784     2856 1
    2904     2785     2786 1
    2905     2785     2789 1
    2906     2786     2787 1
    2907     2786     2790 1
    2908     2787     2788 1
    2909     2788     2789 1
    2910     2789     2795 1
    2911     2790     2791 1
    2912     2790     2794 1
    2913     2791     2792 1
    2914     2792     2793 1
    2915     2792     2796 1
    2916     2793     2794 1
    2917     2793     2799 1
    2918     2797     2798 1
    2919     2797     2805 1
    2920     2798     2799 1
    2921     2798     2806 1
    2922     2799     2800 1
    2923     2800     2801 1
    2924     2800     2804 1
    2925     2801     2802 1
    2926     2802     2803 1
    2927     2803     2804 1
    2928     2804     2805 1
    2929     2805     2909 1
    2930     2807     2808 1
    2931     2807     2823 1
    2932     2807     2824 1
    2933     2808     2809 1
    2934     2808     2815 1
    2935     2808     2825 1
    2936     2809     2810 1
    2937     2809     2826 1
    2938     2809     2827 1
    2939     2810     2811 1
    2940     2810     2828 1
    2941     2810     2829 1
    2942     2811     2812 1
    2943     2811     2830 1
    2944     2811     2831 1
    2945     2812     2813 1
    2946     2812     2832 1
    2947     2812     2833 1
    2948     2813     2814 1
    2949     2813     2834 1
    2950     2813     2835 1
    2951     2814     2836 1
    2952     2814     2837 1
    2953     2814     2838 1
    2954     2815     2816 1
    2955     2815     2839 1
    2956     2815     2840 1
    2957     2816     2817 1
    2958     2816     2841 1
    2959     2816     2842 1
    2960     2817     2818 1
    2961     2817     2843 1
    2962     2817     2844 1
    2963     2818     2819 1
    2964     2818     2845 1
    2965     2818     2846 1
    2966     2819     2820 1
    2967     2819     2847 1
    2968     2819     2848 1
    2969     2820     2821 1
    2970     2820     2849 1
    2971     2820     2850 1
    2972     2821     2822 1
    2973     2821     2851 1
    2974     2821     2852 1
    2975     2822     2853 1
    2976     2822     2854 1
    2977     2822     2855 1
    2978     2856     2857 1
    2979     2856     2872 1
    2980     2856     2873 1
    2981     2857     2858 1
    2982     2857     2864 1
    2983     2857     2874 1
    2984     2858     2859 1
    2985     2858     2875 1
    2986     2858     2876 1
    2987     2859     2860 1
    2988     2859     2877 1
    2989     2859     2878 1
    2990     2860     2861 1
    2991     2860     2879 1
    2992     2860     2880 1
    2993     2861     2862 1
    2994     2861     2881 1
    2995     2861     2882 1
    2996     2862     2863 1
    2997     2862     2883 1
    2998     2862     2884 1
    2999     2863     2885 1
    3000     2863     2886 1
    3001     2863     2887 1
    3002     2864     2865 1
    3003     2864     2888 1
    3004     2864     2889 1
    3005     2865     2866 1
    3006     2865     2890 1
    3007     2865     2891 1
    3008     2866     2867 1
    3009     2866     2892 1
    3010     2866     2893 1
    3011     2867     2868 1
    3012     2867     2894 1
    3013     2867     2895 1
    3014     2868     2869 1
    3015     2868     2896 1
    3016     2868     2897 1
    3017     2869     2870 1
    3018     2869     2898 1
    3019     2869     2899 1
    3020     2870     2871 1
    3021     2870     2900 1
    3022     2870     2901 1
    3023     2871     2902 1
    3024     2871     2903 1
    3025     2871     2904 1
    3026     2905     2906 1
    3027     2905     2912 1
    3028     2905     2928 1
    3029     2905     2977 1
    3030     2906     2907 1
    3031     2906     2910 1
    3032     2907     2908 1
    3033     2907     2911 1
    3034     2908     2909 1
    3035     2909     2910 1
    3036     2910     2916 1
    3037     2911     2912 1
    3038     2911     2915 1
    3039     2912     2913 1
    3040     2913     2914 1
    3041     2913     2917 1
    3042     2914     2915 1
    3043     2914     2920 1
    3044     2918     2919 1
    3045     2918     2926 1
    3046     2919     2920 1
    3047     2919     2927 1
    3048     2920     2921 1
    3049     2921     2922 1
    3050     2921     2925 1
    3051     2922     2923 1
    3052     2923     2924 1
    3053     2924     2925 1
    3054     2925     2926 1
    3055     2926     3030 1
    3056     2928     2929 1
    3057     2928     2944 1
    3058     2928     2945 1
    3059     2929     2930 1
    3060     2929     2936 1
    3061     2929     2946 1
    3062     2930     2931 1
    3063     2930     2947 1
    3064     2930     2948 1
    3065     2931     2932 1
    3066     2931     2949 1
    3067     2931     2950 1
    3068     2932     2933 1
    3069     2932     2951 1
    3070     2932     2952 1
    3071     2933     2934 1
    3072     2933     2953 1
    3073     2933     2954 1
    3074     2934     2935 1
    3075     2934     2955 1
    3076     2934     2956 1
    3077     2935     2957 1
    3078     2935     2958 1
    3079     2935     2959 1
    3080     2936     2937 1
    3081     2936     2960 1
    3082     2936     2961 1
    3083     2937     2938 1
    3084     2937     2962 1
    3085     2937     2963 1
    3086     2938     2939 1
    3087     2938     2964 1
    3088     2938     2965 1
    3089     2939     2940 1
    3090     2939     2966 1
    3091     2939     2967 1
    3092     2940     2941 1
    3093     2940     2968 1
    3094     2940     2969 1
    3095     2941     2942 1
    3096     2941     2970 1
    3097     2941     2971 1
    3098     2942     2943 1
    3099     2942     2972 1
    3100     2942     2973 1
    3101     2943     2974 1
    3102     2943     2975 1
    3103     2943     2976 1
    3104     2977     2978 1
    3105     2977     2993 1
    3106     2977     2994 1
    3107     2978     2979 1
    3108     2978     2985 1
    3109     2978     2995 1
    3110     2979     2980 1
    3111     2979     2996 1
    3112     2979     2997 1
    3113     2980     2981 1
    3114     2980     2998 1
    3115     2980     2999 1
    3116     2981     2982 1
    3117     2981     3000 1
    3118     2981     3001 1
    3119     2982     2983 1
    3120     2982     3002 1
    3121     2982     3003 1
    3122     2983     2984 1
    3123     2983     3004 1
    3124     2983     3005 1
    3125     2984     3006 1
    3126     2984     3007 1
    3127     2984     3008 1
    3128     2985     2986 1
    3129     2985     3009 1
    3130     2985     3010 1
    3131     2986     2987 1
    3132     2986     3011 1
    3133     2986     3012 1
    3134     2987     2988 1
    3135     2987     3013 1
    3136     2987     3014 1
    3137     2988     2989 1
    3138     2988     3015 1
    3139     2988     3016 1
    3140     2989     2990 1
    3141     2989     3017 1
    3142     2989     3018 1
    3143     2990     2991 1
    3144     2990     3019 1
    3145     2990     3020 1
    3146     2991     2992 1
    3147     2991     3021 1
    3148     2991     3022 1
    3149     2992     3023 1
    3150     2992     3024 1
    3151     2992     3025 1
    3152     3026     3027 1
    3153     3026     3033 1
    3154     3026     3049 1
    3155     3026     3098 1
    3156     3027     3028 1
    3157     3027     3031 1
    3158     3028     3029 1
    3159     3028     3032 1
    3160     3029     3030 1
    3161     3030     3031 1
    3162     3031     3037 1
    3163     3032     3033 1
    3164     3032     3036 1
    3165     3033     3034 1
    3166     3034     3035 1
    3167     3034     3038 1
    3168     3035     3036 1
    3169     3035     3041 1
    3170     3039     3040 1
    3171     3039     3047 1
    3172     3040     3041 1
    3173     3040     3048 1
    3174     3041     3042 1
    3175     3042     3043 1
    3176     3042     3046 1
    3177     3043     3044 1
    3178     3044     3045 1
    3179     3045     3046 1
    3180     3046     3047 1
    3181     3047     3151 1
    3182     3049     3050 1
    3183     3049     3065 1
    3184     3049     3066 1
    3185     3050     3051 1
    3186     3050     3057 1
    3187     3050     3067 1
    3188     3051     3052 1
    3189     3051     3068 1
    3190     3051     3069 1
    3191     3052     3053 1
    3192     3052     3070 1
    3193     3052     3071 1
    3194     3053     3054 1
    3195     3053     3072 1
    3196     3053     3073 1
    3197     3054     3055 1
    3198     3054     3074 1
    3199     3054     3075 1
    3200     3055     3056 1
    3201     3055     3076 1
    3202     3055     3077 1
    3203     3056     3078 1
    3204     3056     3079 1
    3205     3056     3080 1
    3206     3057     3058 1
    3207     3057     3081 1
    3208     3057     3082 1
    3209     3058     3059 1
    3210     3058     3083 1
    3211     3058     3084 1
    3212     3059     3060 1
    3213     3059     3085 1
    3214     3059     3086 1
    3215     3060     3061 1
    3216     3060     3087 1
    3217     3060     3088 1
    3218     3061     3062 1
    3219     3061     3089 1
    3220     3061     3090 1
    3221     3062     3063 1
    3222     3062     3091 1
    3223     3062     3092 1
    3224     3063     3064 1
    3225     3063     3093 1
    3226     3063     3094 1
    3227     3064     3095 1
    3228     3064     3096 1
    3229     3064     3097 1
    3230     3098     3099 1
    3231     3098     3114 1
    3232     3098     3115 1
    3233     3099     3100 1
    3234     3099     3106 1
    3235     3099     3116 1
    3236     3100     3101 1
    3237     3100     3117 1
    3238     3100     3118 1
    3239     3101     3102 1
    3240     3101     3119 1
    3241     3101     3120 1
    3242     3102     3103 1
    3243     3102     3121 1
    3244     3102     3122 1
    3245     3103     3104 1
    3246     3103     3123 1
    3247     3103     3124 1
    3248     3104     3105 1
    3249     3104     3125 1
    3250     3104     3126 1
    3251     3105     3127 1
    3252     3105     3128 1
    3253     3105     3129 1
    3254     3106     3107 1
    3255     3106     3130 1
    3256     3106     3131 1
    3257     3107     3108 1
    3258     3107     3132 1
    3259     3107     3133 1
    3260     3108     3109 1
    3261     3108     3134 1
    3262     3108     3135 1
    3263     3109     3110 1
    3264     3109     3136 1
    3265     3109     3137 1
    3266     3110     3111 1
    3267     3110     3138 1
    3268     3110     3139 1
    3269     3111     3112 1
    3270     3111     3140 1
    3271     3111     3141 1
    3272     3112     3113 1
    3273     3112     3142 1
    3274     3112     3143 1
    3275     3113     3144 1
    3276     3113     3145 1
    3277     3113     3146 1
    3278     3147     3148 1
    3279     3147     3154 1
    3280     3147     3170 1
    3281     3147     3219 1
    3282     3148     3149 1
    3283     3148     3152 1
    3284     3149     3150 1
    3285     3149     3153 1
    3286     3150     3151 1
    3287     3151     3152 1
    3288     3152     3158 1
    3289     3153     3154 1
    3290     3153     3157 1
    3291     3154     3155 1
    3292     3155     3156 1
    3293     3155     3159 1
    3294     3156     3157 1
    3295     3156     3162 1
    3296     3160     3161 1
    3297     3160     3168 1
    3298     3161     3162 1
    3299     3161     3169 1
    3300     3162     3163 1
    3301     3163     3164 1
    3302     3163     3167 1
    3303     3164     3165 1
    3304     3165     3166 1
    3305     3166     3167 1
    3306     3167     3168 1
    3307     3168     3272 1
    3308     3170     3171 1
    3309     3170     3186 1
    3310     3170     3187 1
    3311     3171     3172 1
    3312     3171     3178 1
    3313     3171     3188 1
    3314     3172     3173 1
    3315     3172     3189 1
    3316     3172     3190 1
    3317     3173     3174 1
    3318     3173     3191 1
    3319     3173     3192 1
    3320     3174     3175 1
    3321     3174     3193 1
    3322     3174     3194 1
    3323     3175     3176 1
    3324     3175     3195 1
    3325     3175     3196 1
    3326     3176     3177 1
    3327     3176     3197 1
    3328     3176     3198 1
    3329     3177     3199 1
    3330     3177     3200 1
    3331     3177     3201 1
    3332     3178     3179 1
    3333     3178     3202 1
    3334     3178     3203 1
    3335     3179     3180 1
    3336     3179     3204 1
    3337     3179     3205 1
    3338     3180     3181 1
    3339     3180     3206 1
    3340     3180     3207 1
    3341     3181     3182 1
    3342     3181     3208 1
    3343     3181     3209 1
    3344     3182     3183 1
    3345     3182     3210 1
    3346     3182     3211 1
    3347     3183     3184 1
    3348     3183     3212 1
    3349     3183     3213 1
    3350     3184     3185 1
    3351     3184     3214 1
    3352     3184     3215 1
    3353     3185     3216 1
    3354     3185     3217 1
    3355     3185     3218 1
    3356     3219     3220 1
    3357     3219     3235 1
    3358     3219     3236 1
    3359     3220     3221 1
    3360     3220     3227 1
    3361     3220     3237 1
    3362     3221     3222 1
    3363     3221     3238 1
    3364     3221     3239 1
    3365     3222     3223 1
    3366     3222     3240 1
    3367     3222     3241 1
    3368     3223     3224 1
    3369     3223     3242 1
    3370     3223     3243 1
    3371     3224     3225 1
    3372     3224     3244 1
    3373     3224     3245 1
    3374     3225     3226 1
    3375     3225     3246 1
    3376     3225     3247 1
    3377     3226     3248 1
    3378     3226     3249 1
    3379     3226     3250 1
    3380     3227     3228 1
    3381     3227     3251 1
    3382     3227     3252 1
    3383     3228     3229 1
    3384     3228     3253 1
    3385     3228     3254 1
    3386     3229     3230 1
    3387     3229     3255 1
    3388     3229     3256 1
    3389     3230     3231 1
    3390     3230     3257 1
    3391     3230     3258 1
    3392     3231     3232 1
    3393     3231     3259 1
    3394     3231     3260 1
    3395     3232     3233 1
    3396     3232     3261 1
    3397     3232     3262 1
    3398     3233     3234 1
    3399     3233     3263 1
    3400     3233     3264 1
    3401     3234     3265 1
    3402     3234     3266 1
    3403     3234     3267 1
    3404     3268     3269 1
    3405     3268     3275 1
    3406     3268     3291 1
    3407     3268     3340 1
    3408     3269     3270 1
    3409     3269     3273 1
    3410     3270     3271 1
    3411     3270     3274 1
    3412     3271     3272 1
    3413     3272     3273 1
    3414     3273     3279 1
    3415     3274     3275 1
    3416     3274     3278 1
    3417     3275     3276 1
    3418     3276     3277 1
    3419     3276     3280 1
    3420     3277     3278 1
    3421     3277     3283 1
    3422     3281     3282 1
    3423     3281     3289 1
    3424     3282     3283 1
    3425     3282     3290 1
    3426     3283     3284 1
    3427     3284     3285 1
    3428     3284     3288 1
    3429     3285     3286 1
    3430     3286     3287 1
    3431     3287     3288 1
    3432     3288     3289 1
    3433     3289     3393 1
    3434     3291     3292 1
    3435     3291     3307 1
    3436     3291     3308 1
    3437     3292     3293 1
    3438     3292     3299 1
    3439     3292     3309 1
    3440     3293     3294 1
    3441     3293     3310 1
    3442     3293     3311 1
    3443     3294     3295 1
    3444     3294     3312 1
    3445     3294     3313 1
    3446     3295     3296 1
    3447     3295     3314 1
    3448     3295     3315 1
    3449     3296     3297 1
    3450     3296     3316 1
    3451     3296     3317 1
    3452     3297     3298 1
    3453     3297     3318 1
    3454     3297     3319 1
    3455     3298     3320 1
    3456     3298     3321 1
    3457     3298     3322 1
    3458     3299     3300 1
    3459     3299     3323 1
    3460     3299     3324 1
    3461     3300     3301 1
    3462     3300     3325 1
    3463     3300     3326 1
    3464     3301     3302 1
    3465     3301     3327 1
    3466     3301     3328 1
    3467     3302     3303 1
    3468     3302     3329 1
    3469     3302     3330 1
    3470     3303     3304 1
    3471     3303     3331 1
    3472     3303     3332 1
    3473     3304     3305 1
    3474     3304     3333 1
    3475     3304     3334 1
    3476     3305     3306 1
    3477     3305     3335 1
    3478     3305     3336 1
    3479     3306     3337 1
    3480     3306     3338 1
    3481     3306     3339 1
    3482     3340     3341 1
    3483     3340     3356 1
    3484     3340     3357 1
    3485     3341     3342 1
    3486     3341     3348 1
    3487     3341     3358 1
    3488     3342     3343 1
    3489     3342     3359 1
    3490     3342     3360 1
    3491     3343     3344 1
    3492     3343     3361 1
    3493     3343     3362 1
    3494     3344     3345 1
    3495     3344     3363 1
    3496     3344     3364 1
    3497     3345     3346 1
    3498     3345     3365 1
    3499     3345     3366 1
    3500     3346     3347 1
    3501     3346     3367 1
    3502     3346     3368 1
    3503     3347     3369 1
    3504     3347     3370 1
    3505     3347     3371 1
    3506     3348     3349 1
    3507     3348     3372 1
    3508     3348     3373 1
    3509     3349     3350 1
    3510     3349     3374 1
    3511     3349     3375 1
    3512     3350     3351 1
    3513     3350     3376 1
    3514     3350     3377 1
    3515     3351     3352 1
    3516     3351     3378 1
    3517     3351     3379 1
    3518     3352     3353 1
    3519     3352     3380 1
    3520     3352     3381 1
    3521     3353     3354 1
    3522     3353     3382 1
    3523     3353     3383 1
    3524     3354     3355 1
    3525     3354     3384 1
    3526     3354     3385 1
    3527     3355     3386 1
    3528     3355     3387 1
    3529     3355     3388 1
    3530     3389     3390 1
    3531     3389     3396 1
    3532     3389     3412 1
    3533     3389     3461 1
    3534     3390     3391 1
    3535     3390     3394 1
    3536     3391     3392 1
    3537     3391     3395 1
    3538     3392     3393 1
    3539     3393     3394 1
    3540     3394     3400 1
    3541     3395     3396 1
    3542     3395     3399 1
    3543     3396     3397 1
    3544     3397     3398 1
    3545     3397     3401 1
    3546     3398     3399 1
    3547     3398     3404 1
    3548     3402     3403 1
    3549     3402     3410 1
    3550     3403     3404 1
    3551     3403     3411 1
    3552     3404     3405 1
    3553     3405     3406 1
    3554     3405     3409 1
    3555     3406     3407 1
    3556     3407     3408 1
    3557     3408     3409 1
    3558     3409     3410 1
    3559     3410     3514 1
    3560     3412     3413 1
    3561     3412     3428 1
    3562     3412     3429 1
    3563     3413     3414 1
    3564     3413     3420 1
    3565     3413     3430 1
    3566     3414     3415 1
    3567     3414     3431 1
    3568     3414     3432 1
    3569     3415     3416 1
    3570     3415     3433 1
    3571     3415     3434 1
    3572     3416     3417 1
    3573     3416     3435 1
    3574     3416     3436 1
    3575     3417     3418 1
    3576     3417     3437 1
    3577     3417     3438 1
    3578     3418     3419 1
    3579     3418     3439 1
    3580     3418     3440 1
    3581     3419     3441 1
    3582     3419     3442 1
    3583     3419     3443 1
    3584     3420     3421 1
    3585     3420     3444 1
    3586     3420     3445 1
    3587     3421     3422 1
    3588     3421     3446 1
    3589     3421     3447 1
    3590     3422     3423 1
    3591     3422     3448 1
    3592     3422     3449 1
    3593     3423     3424 1
    3594     3423     3450 1
    3595     3423     3451 1
    3596     3424     3425 1
    3597     3424     3452 1
    3598     3424     3453 1
    3599     3425     3426 1
    3600     3425     3454 1
    3601     3425     3455 1
    3602     3426     3427 1
    3603     3426     3456 1
    3604     3426     3457 1
    3605     3427     3458 1
    3606     3427     3459 1
    3607     3427     3460 1
    3608     3461     3462 1
    3609     3461     3477 1
    3610     3461     3478 1
    3611     3462     3463 1
    3612     3462     3469 1
    3613     3462     3479 1
    3614     3463     3464 1
    3615     3463     3480 1
    3616     3463     3481 1
    3617     3464     3465 1
    3618     3464     3482 1
    3619     3464     3483 1
    3620     3465     3466 1
    3621     3465     3484 1
    3622     3465     3485 1
    3623     3466     3467 1
    3624     3466     3486 1
    3625     3466     3487 1
    3626     3467     3468 1
    3627     3467     3488 1
    3628     3467     3489 1
    3629     3468     3490 1
    3630     3468     3491 1
    3631     3468     3492 1
    3632     3469     3470 1
    3633     3469     3493 1
    3634     3469     3494 1
    3635     3470     3471 1
    3636     3470     3495 1
    3637     3470     3496 1
    3638     3471     3472 1
    3639     3471     3497 1
    3640     3471     3498 1
    3641     3472     3473 1
    3642     3472     3499 1
    3643     3472     3500 1
    3644     3473     3474 1
    3645     3473     3501 1
    3646     3473     3502 1
    3647     3474     3475 1
    3648     3474     3503 1
    3649     3474     3504 1
    3650     3475     3476 1
    3651     3475     3505 1
    3652     3475     3506 1
    3653     3476     3507 1
    3654     3476     3508 1
    3655     3476     3509 1
    3656     3510     3511 1
    3657     3510     3517 1
    3658     3510     3533 1
    3659     3510     3582 1
    3660     3511     3512 1
    3661     3511     3515 1
    3662     3512     3513 1
    3663     3512     3516 1
    3664     3513     3514 1
    3665     3514     3515 1
    3666     3515     3521 1
    3667     3516     3517 1
    3668     3516     3520 1
    3669     3517     3518 1
    3670     3518     3519 1
    3671     3518     3522 1
    3672     3519     3520 1
    3673     3519     3525 1
    3674     3523     3524 1
    3675     3523     3531 1
    3676     3524     3525 1
    3677     3524     3532 1
    3678     3525     3526 1
    3679     3526     3527 1
    3680     3526     3530 1
    3681     3527     3528 1
    3682     3528     3529 1
    3683     3529     3530 1
    3684     3530     3531 1
    3685     3531     3635 1
    3686     3533     3534 1
    3687     3533     3549 1
    3688     3533     3550 1
    3689     3534     3535 1
    3690     3534     3541 1
    3691     3534     3551 1
    3692     3535     3536 1
    3693     3535     3552 1
    3694     3535     3553 1
    3695     3536     3537 1
    3696     3536     3554 1
    3697     3536     3555 1
    3698     3537     3538 1
    3699     3537     3556 1
    3700     3537     3557 1
    3701     3538     3539 1
    3702     3538     3558 1
    3703     3538     3559 1
    3704     3539     3540 1
    3705     3539     3560 1
    3706     3539     3561 1
    3707     3540     3562 1
    3708     3540     3563 1
    3709     3540     3564 1
    3710     3541     3542 1
    3711     3541     3565 1
    3712     3541     3566 1
    3713     3542     3543 1
    3714     3542     3567 1
    3715     3542     3568 1
    3716     3543     3544 1
    3717     3543     3569 1
    3718     3543     3570 1
    3719     3544     3545 1
    3720     3544     3571 1
    3721     3544     3572 1
    3722     3545     3546 1
    3723     3545     3573 1
    3724     3545     3574 1
    3725     3546     3547 1
    3726     3546     3575 1
    3727     3546     3576 1
    3728     3547     3548 1
    3729     3547     3577 1
    3730     3547     3578 1
    3731     3548     3579 1
    3732     3548     3580 1
    3733     3548     3581 1
    3734     3582     3583 1
    3735     3582     3598 1
    3736     3582     3599 1
    3737     3583     3584 1
    3738     3583     3590 1
    3739     3583     3600 1
    3740     3584     3585 1
    3741     3584     3601 1
    3742     3584     3602 1
    3743     3585     3586 1
    3744     3585     3603 1
    3745     3585     3604 1
    3746     3586     3587 1
    3747     3586     3605 1
    3748     3586     3606 1
    3749     3587     3588 1
    3750     3587     3607 1
    3751     3587     3608 1
    3752     3588     3589 1
    3753     3588     3609 1
    3754     3588     3610 1
    3755     3589     3611 1
    3756     3589     3612 1
    3757     3589     3613 1
    3758     3590     3591 1
    3759     3590     3614 1
    3760     3590     3615 1
    3761     3591     3592 1
    3762     3591     3616 1
    3763     3591     3617 1
    3764     3592     3593 1
    3765     3592     3618 1
    3766     3592     3619 1
    3767     3593     3594 1
    3768     3593     3620 1
    3769     3593     3621 1
    3770     3594     3595 1
    3771     3594     3622 1
    3772     3594     3623 1
    3773     3595     3596 1
    3774     3595     3624 1
    3775     3595     3625 1
    3776     3596     3597 1
    3777     3596     3626 1
    3778     3596     3627 1
    3779     3597     3628 1
    3780     3597     3629 1
    3781     3597     3630 1
    3782     3631     3632 1
    3783     3631     3638 1
    3784     3631     3654 1
    3785     3631     3703 1
    3786     3632     3633 1
    3787     3632     3636 1
    3788     3633     3634 1
    3789     3633     3637 1
    3790     3634     3635 1
    3791     3635     3636 1
    3792     3636     3642 1
    3793     3637     3638 1
    3794     3637     3641 1
    3795     3638     3639 1
    3796     3639     3640 1
    3797     3639     3643 1
    3798     3640     3641 1
    3799     3640     3646 1
    3800     3644     3645 1
    3801     3644     3652 1
    3802     3645     3646 1
    3803     3645     3653 1
    3804     3646     3647 1
    3805     3647     3648 1
    3806     3647     3651 1
    3807     3648     3649 1
    3808     3649     3650 1
    3809     3650     3651 1
    3810     3651     3652 1
    3811     3652     3756 1
    3812     3654     3655 1
    3813     3654     3670 1
    3814     3654     3671 1
    3815     3655     3656 1
    3816     3655     3662 1
    3817     3655     3672 1
    3818     3656     3657 1
    3819     3656     3673 1
    3820     3656     3674 1
    3821     3657     3658 1
    3822     3657     3675 1
    3823     3657     3676 1
    3824     3658     3659 1
    3825     3658     3677 1
    3826     3658     3678 1
    3827     3659     3660 1
    3828     3659     3679 1
    3829     3659     3680 1
    3830     3660     3661 1
    3831     3660     3681 1
    3832     3660     3682 1
    3833     3661     3683 1
    3834     3661     3684 1
    3835     3661     3685 1
    3836     3662     3663 1
    3837     3662     3686 1
    3838     3662     3687 1
    3839     3663     3664 1
    3840     3663     3688 1
    3841     3663     3689 1
    3842     3664     3665 1
    3843     3664     3690 1
    3844     3664     3691 1
    3845     3665     3666 1
    3846     3665     3692 1
    3847     3665     3693 1
    3848     3666     3667 1
    3849     3666     3694 1
    3850     3666     3695 1
    3851     3667     3668 1
    3852     3667     3696 1
    3853     3667     3697 1
    3854     3668     3669 1
    3855     3668     3698 1
    3856     3668     3699 1
    3857     3669     3700 1
    3858     3669     3701 1
    3859     3669     3702 1
    3860     3703     3704 1
    3861     3703     3719 1
    3862     3703     3720 1
    3863     3704     3705 1
    3864     3704     3711 1
    3865     3704     3721 1
    3866     3705     3706 1
    3867     3705     3722 1
    3868     3705     3723 1
    3869     3706     3707 1
    3870     3706     3724 1
    3871     3706     3725 1
    3872     3707     3708 1
    3873     3707     3726 1
    3874     3707     3727 1
    3875     3708     3709 1
    3876     3708     3728 1
    3877     3708     3729 1
    3878     3709     3710 1
    3879     3709     3730 1
    3880     3709     3731 1
    3881     3710     3732 1
    3882     3710     3733 1
    3883     3710     3734 1
    3884     3711     3712 1
    3885     3711     3735 1
    3886     3711     3736 1
    3887     3712     3713 1
    3888     3712     3737 1
    3889     3712     3738 1
    3890     3713     3714 1
    3891     3713     3739 1
    3892     3713     3740 1
    3893     3714     3715 1
    3894     3714     3741 1
    3895     3714     3742 1
    3896     3715     3716 1
    3897     3715     3743 1
    3898     3715     3744 1
    3899     3716     3717 1
    3900     3716     3745 1
    3901     3716     3746 1
    3902     3717     3718 1
    3903     3717     3747 1
    3904     3717     3748 1
    3905     3718     3749 1
    3906     3718     3750 1
    3907     3718     3751 1
    3908     3752     3753 1
    3909     3752     3759 1
    3910     3752     3775 1
    3911     3752     3824 1
    3912     3753     3754 1
    3913     3753     3757 1
    3914     3754     3755 1
    3915     3754     3758 1
    3916     3755     3756 1
    3917     3756     3757 1
    3918     3757     3763 1
    3919     3758     3759 1
    3920     3758     3762 1
    3921     3759     3760 1
    3922     3760     3761 1
    3923     3760     3764 1
    3924     3761     3762 1
    3925     3761     3767 1
    3926     3765     3766 1
    3927     3765     3773 1
    3928     3766     3767 1
    3929     3766     3774 1
    3930     3767     3768 1
    3931     3768     3769 1
    3932     3768     3772 1
    3933     3769     3770 1
    3934     3770     3771 1
    3935     3771     3772 1
    3936     3772     3773 1
    3937     3773     3877 1
    3938     3775     3776 1
    3939     3775     3791 1
    3940     3775     3792 1
    3941     3776     3777 1
    3942     3776     3783 1
    3943     3776     3793 1
    3944     3777     3778 1
    3945     3777     3794 1
    3946     3777     3795 1
    3947     3778     3779 1
    3948     3778     3796 1
    3949     3778     3797 1
    3950     3779     3780 1
    3951     3779     3798 1
    3952     3779     3799 1
    3953     3780     3781 1
    3954     3780     3800 1
    3955     3780     3801 1
    3956     3781     3782 1
    3957     3781     3802 1
    3958     3781     3803 1
    3959     3782     3804 1
    3960     3782     3805 1
    3961     3782     3806 1
    3962     3783     3784 1
    3963     3783     3807 1
    3964     3783     3808 1
    3965     3784     3785 1
    3966     3784     3809 1
    3967     3784     3810 1
    3968     3785     3786 1
    3969     3785     3811 1
    3970     3785     3812 1
    3971     3786     3787 1
    3972     3786     3813 1
    3973     3786     3814 1
    3974     3787     3788 1
    3975     3787     3815 1
    3976     3787     3816 1
    3977     3788     3789 1
    3978     3788     3817 1
    3979     3788     3818 1
    3980     3789     3790 1
    3981     3789     3819 1
    3982     3789     3820 1
    3983     3790     3821 1
    3984     3790     3822 1
    3985     3790     3823 1
    3986     3824     3825 1
    3987     3824     3840 1
    3988     3824     3841 1
    3989     3825     3826 1
    3990     3825     3832 1
    3991     3825     3842 1
    3992     3826     3827 1
    3993     3826     3843 1
    3994     3826     3844 1
    3995     3827     3828 1
    3996     3827     3845 1
    3997     3827     3846 1
    3998     3828     3829 1
    3999     3828     3847 1
    4000     3828     3848 1
    4001     3829     3830 1
    4002     3829     3849 1
    4003     3829     3850 1
    4004     3830     3831 1
    4005     3830     3851 1
    4006     3830     3852 1
    4007     3831     3853 1
    4008     3831     3854 1
    4009     3831     3855 1
    4010     3832     3833 1
    4011     3832     3856 1
    4012     3832     3857 1
    4013     3833     3834 1
    4014     3833     3858 1
    4015     3833     3859 1
    4016     3834     3835 1
    4017     3834     3860 1
    4018     3834     3861 1
    4019     3835     3836 1
    4020     3835     3862 1
    4021     3835     3863 1
    4022     3836     3837 1
    4023     3836     3864 1
    4024     3836     3865 1
    4025     3837     3838 1
    4026     3837     3866 1
    4027     3837     3867 1
    4028     3838     3839 1
    4029     3838     3868 1
    4030     3838     3869 1
    4031     3839     3870 1
    4032     3839     3871 1
    4033     3839     3872 1
    4034     3873     3874 1
    4035     3873     3880 1
    4036     3873     3896 1
    4037     3873     3945 1
    4038     3874     3875 1
    4039     3874     3878 1
    4040     3875     3876 1
    4041     3875     3879 1
    4042     3876     3877 1
    4043     3877     3878 1
    4044     3878     3884 1
    4045     3879     3880 1
    4046     3879     3883 1
    4047     3880     3881 1
    4048     3881     3882 1
    4049     3881     3885 1
    4050     3882     3883 1
    4051     3882     3888 1
    4052     3886     3887 1
    4053     3886     3894 1
    4054     3887     3888 1
    4055     3887     3895 1
    4056     3888     3889 1
    4057     3889     3890 1
    4058     3889     3893 1
    4059     3890     3891 1
    4060     3891     3892 1
    4061     3892     3893 1
    4062     3893     3894 1
    4063     3894     3998 1
    4064     3896     3897 1
    4065     3896     3912 1
    4066     3896     3913 1
    4067     3897     3898 1
    4068     3897     3904 1
    4069     3897     3914 1
    4070     3898     3899 1
    4071     3898     3915 1
    4072     3898     3916 1
    4073     3899     3900 1
    4074     3899     3917 1
    4075     3899     3918 1
    4076     3900     3901 1
    4077     3900     3919 1
    4078     3900     3920 1
    4079     3901     3902 1
    4080     3901     3921 1
    4081     3901     3922 1
    4082     3902     3903 1
    4083     3902     3923 1
    4084     3902     3924 1
    4085     3903     3925 1
    4086     3903     3926 1
    4087     3903     3927 1
    4088     3904     3905 1
    4089     3904     3928 1
    4090     3904     3929 1
    4091     3905     3906 1
    4092     3905     3930 1
    4093     3905     3931 1
    4094     3906     3907 1
    4095     3906     3932 1
    4096     3906     3933 1
    4097     3907     3908 1
    4098     3907     3934 1
    4099     3907     3935 1
    4100     3908     3909 1
    4101     3908     3936 1
    4102     3908     3937 1
    4103     3909     3910 1
    4104     3909     3938 1
    4105     3909     3939 1
    4106     3910     3911 1
    4107     3910     3940 1
    4108     3910     3941 1
    4109     3911     3942 1
    4110     3911     3943 1
    4111     3911     3944 1
    4112     3945     3946 1
    4113     3945     3961 1
    4114     3945     3962 1
    4115     3946     3947 1
    4116     3946     3953 1
    4117     3946     3963 1
    4118     3947     3948 1
    4119     3947     3964 1
    4120     3947     3965 1
    4121     3948     3949 1
    4122     3948     3966 1
    4123     3948     3967 1
    4124     3949     3950 1
    4125     3949     3968 1
    4126     3949     3969 1
    4127     3950     3951 1
    4128     3950     3970 1
    4129     3950     3971 1
    4130     3951     3952 1
    4131     3951     3972 1
    4132     3951     3973 1
    4133     3952     3974 1
    4134     3952     3975 1
    4135     3952     3976 1
    4136     3953     3954 1
    4137     3953     3977 1
    4138     3953     3978 1
    4139     3954     3955 1
    4140     3954     3979 1
    4141     3954     3980 1
    4142     3955     3956 1
    4143     3955     3981 1
    4144     3955     3982 1
    4145     3956     3957 1
    4146     3956     3983 1
    4147     3956     3984 1
    4148     3957     3958 1
    4149     3957     3985 1
    4150     3957     3986 1
    4151     3958     3959 1
    4152     3958     3987 1
    4153     3958     3988 1
    4154     3959     3960 1
    4155     3959     3989 1
    4156     3959     3990 1
    4157     3960     3991 1
    4158     3960     3992 1
    4159     3960     3993 1
    4160     3994     3995 1
    4161     3994     4001 1
    4162     3994     4017 1
    4163     3994     4066 1
    4164     3995     3996 1
    4165     3995     3999 1
    4166     3996     3997 1
    4167     3996     4000 1
    4168     3997     3998 1
    4169     3998     3999 1
    4170     3999     4005 1
    4171     4000     4001 1
    4172     4000     4004 1
    4173     4001     4002 1
    4174     4002     4003 1
    4175     4002     4006 1
    4176     4003     4004 1
    4177     4003     4009 1
    4178     4007     4008 1
    4179     4007     4015 1
    4180     4008     4009 1
    4181     4008     4016 1
    4182     4009     4010 1
    4183     4010     4011 1
    4184     4010     4014 1
    4185     4011     4012 1
    4186     4012     4013 1
    4187     4013     4014 1
    4188     4014     4015 1
    4189     4015     4119 1
    4190     4017     4018 1
    4191     4017     4033 1
    4192     4017     4034 1
    4193     4018     4019 1
    4194     4018     4025 1
    4195     4018     4035 1
    4196     4019     4020 1
    4197     4019     4036 1
    4198     4019     4037 1
    4199     4020     4021 1
    4200     4020     4038 1
    4201     4020     4039 1
    4202     4021     4022 1
    4203     4021     4040 1
    4204     4021     4041 1
    4205     4022     4023 1
    4206     4022     4042 1
    4207     4022     4043 1
    4208     4023     4024 1
    4209     4023     4044 1
    4210     4023     4045 1
    4211     4024     4046 1
    4212     4024     4047 1
    4213     4024     4048 1
    4214     4025     4026 1
    4215     4025     4049 1
    4216     4025     4050 1
    4217     4026     4027 1
    4218     4026     4051 1
    4219     4026     4052 1
    4220     4027     4028 1
    4221     4027     4053 1
    4222     4027     4054 1
    4223     4028     4029 1
    4224     4028     4055 1
    4225     4028     4056 1
    4226     4029     4030 1
    4227     4029     4057 1
    4228     4029     4058 1
    4229     4030     4031 1
    4230     4030     4059 1
    4231     4030     4060 1
    4232     4031     4032 1
    4233     4031     4061 1
    4234     4031     4062 1
    4235     4032     4063 1
    4236     4032     4064 1
    4237     4032     4065 1
    4238     4066     4067 1
    4239     4066     4082 1
    4240     4066     4083 1
    4241     4067     4068 1
    4242     4067     4074 1
    4243     4067     4084 1
    4244     4068     4069 1
    4245     4068     4085 1
    4246     4068     4086 1
    4247     4069     4070 1
    4248     4069     4087 1
    4249     4069     4088 1
    4250     4070     4071 1
    4251     4070     4089 1
    4252     4070     4090 1
    4253     4071     4072 1
    4254     4071     4091 1
    4255     4071     4092 1
    4256     4072     4073 1
    4257     4072     4093 1
    4258     4072     4094 1
    4259     4073     4095 1
    4260     4073     4096 1
    4261     4073     4097 1
    4262     4074     4075 1
    4263     4074     4098 1
    4264     4074     4099 1
    4265     4075     4076 1
    4266     4075     4100 1
    4267     4075     4101 1
    4268     4076     4077 1
    4269     4076     4102 1
    4270     4076     4103 1
    4271     4077     4078 1
    4272     4077     4104 1
    4273     4077     4105 1
    4274     4078     4079 1
    4275     4078     4106 1
    4276     4078     4107 1
    4277     4079     4080 1
    4278     4079     4108 1
    4279     4079     4109 1
    4280     4080     4081 1
    4281     4080     4110 1
    4282     4080     4111 1
    4283     4081     4112 1
    4284     4081     4113 1
    4285     4081     4114 1
    4286     4115     4116 1
    4287     4115     4122 1
    4288     4115     4138 1
    4289     4115     4187 1
    4290     4116     4117 1
    4291     4116     4120 1
    4292     4117     4118 1
    4293     4117     4121 1
    4294     4118     4119 1
    4295     4119     4120 1
    4296     4120     4126 1
    4297     4121     4122 1
    4298     4121     4125 1
    4299     4122     4123 1
    4300     4123     4124 1
    4301     4123     4127 1
    4302     4124     4125 1
    4303     4124     4130 1
    4304     4128     4129 1
    4305     4128     4136 1
    4306     4129     4130 1
    4307     4129     4137 1
    4308     4130     4131 1
    4309     4131     4132 1
    4310     4131     4135 1
    4311     4132     4133 1
    4312     4133     4134 1
    4313     4134     4135 1
    4314     4135     4136 1
    4315     4136     4240 1
    4316     4138     4139 1
    4317     4138     4154 1
    4318     4138     4155 1
    4319     4139     4140 1
    4320     4139     4146 1
    4321     4139     4156 1
    4322     4140     4141 1
    4323     4140     4157 1
    4324     4140     4158 1
    4325     4141     4142 1
    4326     4141     4159 1
    4327     4141     4160 1
    4328     4142     4143 1
    4329     4142     4161 1
    4330     4142     4162 1
    4331     4143     4144 1
    4332     4143     4163 1
    4333     4143     4164 1
    4334     4144     4145 1
    4335     4144     4165 1
    4336     4144     4166 1
    4337     4145     4167 1
    4338     4145     4168 1
    4339     4145     4169 1
    4340     4146     4147 1
    4341     4146     4170 1
    4342     4146     4171 1
    4343     4147     4148 1
    4344     4147     4172 1
    4345     4147     4173 1
    4346     4148     4149 1
    4347     4148     4174 1
    4348     4148     4175 1
    4349     4149     4150 1
    4350     4149     4176 1
    4351     4149     4177 1
    4352     4150     4151 1
    4353     4150     4178 1
    4354     4150     4179 1
    4355     4151     4152 1
    4356     4151     4180 1
    4357     4151     4181 1
    4358     4152     4153 1
    4359     4152     4182 1
    4360     4152     4183 1
    4361     4153     4184 1
    4362     4153     4185 1
    4363     4153     4186 1
    4364     4187     4188 1
    4365     4187     4203 1
    4366     4187     4204 1
    4367     4188     4189 1
    4368     4188     4195 1
    4369     4188     4205 1
    4370     4189     4190 1
    4371     4189     4206 1
    4372     4189     4207 1
    4373     4190     4191 1
    4374     4190     4208 1
    4375     4190     4209 1
    4376     4191     4192 1
    4377     4191     4210 1
    4378     4191     4211 1
    4379     4192     4193 1
    4380     4192     4212 1
    4381     4192     4213 1
    4382     4193     4194 1
    4383     4193     4214 1
    4384     4193     4215 1
    4385     4194     4216 1
    4386     4194     4217 1
    4387     4194     4218 1
    4388     4195     4196 1
    4389     4195     4219 1
    4390     4195     4220 1
    4391     4196     4197 1
    4392     4196     4221 1
    4393     4196     4222 1
    4394     4197     4198 1
    4395     4197     4223 1
    4396     4197     4224 1
    4397     4198     4199 1
    4398     4198     4225 1
    4399     4198     4226 1
    4400     4199     4200 1
    4401     4199     4227 1
    4402     4199     4228 1
    4403     4200     4201 1
    4404     4200     4229 1
    4405     4200     4230 1
    4406     4201     4202 1
    4407     4201     4231 1
    4408     4201     4232 1
    4409     4202     4233 1
    4410     4202     4234 1
    4411     4202     4235 1
    4412     4236     4237 1
    4413     4236     4243 1
    4414     4236     4259 1
    4415     4236     4308 1
    4416     4237     4238 1
    4417     4237     4241 1
    4418     4238     4239 1
    4419     4238     4242 1
    4420     4239     4240 1
    4421     4240     4241 1
    4422     4241     4247 1
    4423     4242     4243 1
    4424     4242     4246 1
    4425     4243     4244 1
    4426     4244     4245 1
    4427     4244     4248 1
    4428     4245     4246 1
    4429     4245     4251 1
    4430     4249     4250 1
    4431     4249     4257 1
    4432     4250     4251 1
    4433     4250     4258 1
    4434     4251     4252 1
    4435     4252     4253 1
    4436     4252     4256 1
    4437     4253     4254 1
    4438     4254     4255 1
    4439     4255     4256 1
    4440     4256     4257 1
    4441     4257     4361 1
    4442     4259     4260 1
    4443     4259     4275 1
    4444     4259     4276 1
    4445     4260     4261 1
    4446     4260     4267 1
    4447     4260     4277 1
    4448     4261     4262 1
    4449     4261     4278 1
    4450     4261     4279 1
    4451     4262     4263 1
    4452     4262     4280 1
    4453     4262     4281 1
    4454     4263     4264 1
    4455     4263     4282 1
    4456     4263     4283 1
    4457     4264     4265 1
    4458     4264     4284 1
    4459     4264     4285 1
    4460     4265     4266 1
    4461     4265     4286 1
    4462     4265     4287 1
    4463     4266     4288 1
    4464     4266     4289 1
    4465     4266     4290 1
    4466     4267     4268 1
    4467     4267     4291 1
    4468     4267     4292 1
    4469     4268     4269 1
    4470     4268     4293 1
    4471     4268     4294 1
    4472     4269     4270 1
    4473     4269     4295 1
    4474     4269     4296 1
    4475     4270     4271 1
    4476     4270     4297 1
    4477     4270     4298 1
    4478     4271     4272 1
    4479     4271     4299 1
    4480     4271     4300 1
    4481     4272     4273 1
    4482     4272     4301 1
    4483     4272     4302 1
    4484     4273     4274 1
    4485     4273     4303 1
    4486     4273     4304 1
    4487     4274     4305 1
    4488     4274     4306 1
    4489     4274     4307 1
    4490     4308     4309 1
    4491     4308     4324 1
    4492     4308     4325 1
    4493     4309     4310 1
    4494     4309     4316 1
    4495     4309     4326 1
    4496     4310     4311 1
    4497     4310     4327 1
    4498     4310     4328 1
    4499     4311     4312 1
    4500     4311     4329 1
    4501     4311     4330 1
    4502     4312     4313 1
    4503     4312     4331 1
    4504     4312     4332 1
    4505     4313     4314 1
    4506     4313     4333 1
    4507     4313     4334 1
    4508     4314     4315 1
    4509     4314     4335 1
    4510     4314     4336 1
    4511     4315     4337 1
    4512     4315     4338 1
    4513     4315     4339 1
    4514     4316     4317 1
    4515     4316     4340 1
    4516     4316     4341 1
    4517     4317     4318 1
    4518     4317     4342 1
    4519     4317     4343 1
    4520     4318     4319 1
    4521     4318     4344 1
    4522     4318     4345 1
    4523     4319     4320 1
    4524     4319     4346 1
    4525     4319     4347 1
    4526     4320     4321 1
    4527     4320     4348 1
    4528     4320     4349 1
    4529     4321     4322 1
    4530     4321     4350 1
    4531     4321     4351 1
    4532     4322     4323 1
    4533     4322     4352 1
    4534     4322     4353 1
    4535     4323     4354 1
    4536     4323     4355 1
    4537     4323     4356 1
    4538     4357     4358 1
    4539     4357     4364 1
    4540     4357     4380 1
    4541     4357     4429 1
    4542     4358     4359 1
    4543     4358     4362 1
    4544     4359     4360 1
    4545     4359     4363 1
    4546     4360     4361 1
    4547     4361     4362 1
    4548     4362     4368 1
    4549     4363     4364 1
    4550     4363     4367 1
    4551     4364     4365 1
    4552     4365     4366 1
    4553     4365     4369 1
    4554     4366     4367 1
    4555     4366     4372 1
    4556     4370     4371 1
    4557     4370     4378 1
    4558     4371     4372 1
    4559     4371     4379 1
    4560     4372     4373 1
    4561     4373     4374 1
    4562     4373     4377 1
    4563     4374     4375 1
    4564     4375     4376 1
    4565     4376     4377 1
    4566     4377     4378 1
    4567     4378     4482 1
    4568     4380     4381 1
    4569     4380     4396 1
    4570     4380     4397 1
    4571     4381     4382 1
    4572     4381     4388 1
    4573     4381     4398 1
    4574     4382     4383 1
    4575     4382     4399 1
    4576     4382     4400 1
    4577     4383     4384 1
    4578     4383     4401 1
    4579     4383     4402 1
    4580     4384     4385 1
    4581     4384     4403 1
    4582     4384     4404 1
    4583     4385     4386 1
    4584     4385     4405 1
    4585     4385     4406 1
    4586     4386     4387 1
    4587     4386     4407 1
    4588     4386     4408 1
    4589     4387     4409 1
    4590     4387     4410 1
    4591     4387     4411 1
    4592     4388     4389 1
    4593     4388     4412 1
    4594     4388     4413 1
    4595     4389     4390 1
    4596     4389     4414 1
    4597     4389     4415 1
    4598     4390     4391 1
    4599     4390     4416 1
    4600     4390     4417 1
    4601     4391     4392 1
    4602     4391     4418 1
    4603     4391     4419 1
    4604     4392     4393 1
    4605     4392     4420 1
    4606     4392     4421 1
    4607     4393     4394 1
    4608     4393     4422 1
    4609     4393     4423 1
    4610     4394     4395 1
    4611     4394     4424 1
    4612     4394     4425 1
    4613     4395     4426 1
    4614     4395     4427 1
    4615     4395     4428 1
    4616     4429     4430 1
    4617     4429     4445 1
    4618     4429     4446 1
    4619     4430     4431 1
    4620     4430     4437 1
    4621     4430     4447 1
    4622     4431     4432 1
    4623     4431     4448 1
    4624     4431     4449 1
    4625     4432     4433 1
    4626     4432     4450 1
    4627     4432     4451 1
    4628     4433     4434 1
    4629     4433     4452 1
    4630     4433     4453 1
    4631     4434     4435 1
    4632     4434     4454 1
    4633     4434     4455 1
    4634     4435     4436 1
    4635     4435     4456 1
    4636     4435     4457 1
    4637     4436     4458 1
    4638     4436     4459 1
    4639     4436     4460 1
    4640     4437     4438 1
    4641     4437     4461 1
    4642     4437     4462 1
    4643     4438     4439 1
    4644     4438     4463 1
    4645     4438     4464 1
    4646     4439     4440 1
    4647     4439     4465 1
    4648     4439     4466 1
    4649     4440     4441 1
    4650     4440     4467 1
    4651     4440     4468 1
    4652     4441     4442 1
    4653     4441     4469 1
    4654     4441     4470 1
    4655     4442     4443 1
    4656     4442     4471 1
    4657     4442     4472 1
    4658     4443     4444 1
    4659     4443     4473 1
    4660     4443     4474 1
    4661     4444     4475 1
    4662     4444     4476 1
    4663     4444     4477 1
    4664     4478     4479 1
    4665     4478     4485 1
    4666     4478     4501 1
    4667     4478     4550 1
    4668     4479     4480 1
    4669     4479     4483 1
    4670     4480     4481 1
    4671     4480     4484 1
    4672     4481     4482 1
    4673     4482     4483 1
    4674     4483     4489 1
    4675     4484     4485 1
    4676     4484     4488 1
    4677     4485     4486 1
    4678     4486     4487 1
    4679     4486     4490 1
    4680     4487     4488 1
    4681     4487     4493 1
    4682     4491     4492 1
    4683     4491     4499 1
    4684     4492     4493 1
    4685     4492     4500 1
    4686     4493     4494 1
    4687     4494     4495 1
    4688     4494     4498 1
    4689     4495     4496 1
    4690     4496     4497 1
    4691     4497     4498 1
    4692     4498     4499 1
    4693     4499     4603 1
    4694     4501     4502 1
    4695     4501     4517 1
    4696     4501     4518 1
    4697     4502     4503 1
    4698     4502     4509 1
    4699     4502     4519 1
    4700     4503     4504 1
    4701     4503     4520 1
    4702     4503     4521 1
    4703     4504     4505 1
    4704     4504     4522 1
    4705     4504     4523 1
    4706     4505     4506 1
    4707     4505     4524 1
    4708     4505     4525 1
    4709     4506     4507 1
    4710     4506     4526 1
    4711     4506     4527 1
    4712     4507     4508 1
    4713     4507     4528 1
    4714     4507     4529 1
    4715     4508     4530 1
    4716     4508     4531 1
    4717     4508     4532 1
    4718     4509     4510 1
    4719     4509     4533 1
    4720     4509     4534 1
    4721     4510     4511 1
    4722     4510     4535 1
    4723     4510     4536 1
    4724     4511     4512 1
    4725     4511     4537 1
    4726     4511     4538 1
    4727     4512     4513 1
    4728     4512     4539 1
    4729     4512     4540 1
    4730     4513     4514 1
    4731     4513     4541 1
    4732     4513     4542 1
    4733     4514     4515 1
    4734     4514     4543 1
    4735     4514     4544 1
    4736     4515     4516 1
    4737     4515     4545 1
    4738     4515     4546 1
    4739     4516     4547 1
    4740     4516     4548 1
    4741     4516     4549 1
    4742     4550     4551 1
    4743     4550     4566 1
    4744     4550     4567 1
    4745     4551     4552 1
    4746     4551     4558 1
    4747     4551     4568 1
    4748     4552     4553 1
    4749     4552     4569 1
    4750     4552     4570 1
    4751     4553     4554 1
    4752     4553     4571 1
    4753     4553     4572 1
    4754     4554     4555 1
    4755     4554     4573 1
    4756     4554     4574 1
    4757     4555     4556 1
    4758     4555     4575 1
    4759     4555     4576 1
    4760     4556     4557 1
    4761     4556     4577 1
    4762     4556     4578 1
    4763     4557     4579 1
    4764     4557     4580 1
    4765     4557     4581 1
    4766     4558     4559 1
    4767     4558     4582 1
    4768     4558     4583 1
    4769     4559     4560 1
    4770     4559     4584 1
    4771     4559     4585 1
    4772     4560     4561 1
    4773     4560     4586 1
    4774     4560     4587 1
    4775     4561     4562 1
    4776     4561     4588 1
    4777     4561     4589 1
    4778     4562     4563 1
    4779     4562     4590 1
    4780     4562     4591 1
    4781     4563     4564 1
    4782     4563     4592 1
    4783     4563     4593 1
    4784     4564     4565 1
    4785     4564     4594 1
    4786     4564     4595 1
    4787     4565     4596 1
    4788     4565     4597 1
    4789     4565     4598 1
    4790     4599     4600 1
    4791     4599     4606 1
    4792     4599     4622 1
    4793     4599     4671 1
    4794     4600     4601 1
    4795     4600     4604 1
    4796     4601     4602 1
    4797     4601     4605 1
    4798     4602     4603 1
    4799     4603     4604 1
    4800     4604     4610 1
    4801     4605     4606 1
    4802     4605     4609 1
    4803     4606     4607 1
    4804     4607     4608 1
    4805     4607     4611 1
    4806     4608     4609 1
    4807     4608     4614 1
    4808     4612     4613 1
    4809     4612     4620 1
    4810     4613     4614 1
    4811     4613     4621 1
    4812     4614     4615 1
    4813     4615     4616 1
    4814     4615     4619 1
    4815     4616     4617 1
    4816     4617     4618 1
    4817     4618     4619 1
    4818     4619     4620 1
    4819     4620     4724 1
    4820     4622     4623 1
    4821     4622     4638 1
    4822     4622     4639 1
    4823     4623     4624 1
    4824     4623     4630 1
    4825     4623     4640 1
    4826     4624     4625 1
    4827     4624     4641 1
    4828     4624     4642 1
    4829     4625     4626 1
    4830     4625     4643 1
    4831     4625     4644 1
    4832     4626     4627 1
    4833     4626     4645 1
    4834     4626     4646 1
    4835     4627     4628 1
    4836     4627     4647 1
    4837     4627     4648 1
    4838     4628     4629 1
    4839     4628     4649 1
    4840     4628     4650 1
    4841     4629     4651 1
    4842     4629     4652 1
    4843     4629     4653 1
    4844     4630     4631 1
    4845     4630     4654 1
    4846     4630     4655 1
    4847     4631     4632 1
    4848     4631     4656 1
    4849     4631     4657 1
    4850     4632     4633 1
    4851     4632     4658 1
    4852     4632     4659 1
    4853     4633     4634 1
    4854     4633     4660 1
    4855     4633     4661 1
    4856     4634     4635 1
    4857     4634     4662 1
    4858     4634     4663 1
    4859     4635     4636 1
    4860     4635     4664 1
    4861     4635     4665 1
    4862     4636     4637 1
    4863     4636     4666 1
    4864     4636     4667 1
    4865     4637     4668 1
    4866     4637     4669 1
    4867     4637     4670 1
    4868     4671     4672 1
    4869     4671     4687 1
    4870     4671     4688 1
    4871     4672     4673 1
    4872     4672     4679 1
    4873     4672     4689 1
    4874     4673     4674 1
    4875     4673     4690 1
    4876     4673     4691 1
    4877     4674     4675 1
    4878     4674     4692 1
    4879     4674     4693 1
    4880     4675     4676 1
    4881     4675     4694 1
    4882     4675     4695 1
    4883     4676     4677 1
    4884     4676     4696 1
    4885     4676     4697 1
    4886     4677     4678 1
    4887     4677     4698 1
    4888     4677     4699 1
    4889     4678     4700 1
    4890     4678     4701 1
    4891     4678     4702 1
    4892     4679     4680 1
    4893     4679     4703 1
    4894     4679     4704 1
    4895     4680     4681 1
    4896     4680     4705 1
    4897     4680     4706 1
    4898     4681     4682 1
    4899     4681     4707 1
    4900     4681     4708 1
    4901     4682     4683 1
    4902     4682     4709 1
    4903     4682     4710 1
    4904     4683     4684 1
    4905     4683     4711 1
    4906     4683     4712 1
    4907     4684     4685 1
    4908     4684     4713 1
    4909     4684     4714 1
    4910     4685     4686 1
    4911     4685     4715 1
    4912     4685     4716 1
    4913     4686     4717 1
    4914     4686     4718 1
    4915     4686     4719 1
    4916     4720     4721 1
    4917     4720     4727 1
    4918     4720     4743 1
    4919     4720     4792 1
    4920     4721     4722 1
    4921     4721     4725 1
    4922     4722     4723 1
    4923     4722     4726 1
    4924     4723     4724 1
    4925     4724     4725 1
    4926     4725     4731 1
    4927     4726     4727 1
    4928     4726     4730 1
    4929     4727     4728 1
    4930     4728     4729 1
    4931     4728     4732 1
    4932     4729     4730 1
    4933     4729     4735 1
    4934     4733     4734 1
    4935     4733     4741 1
    4936     4734     4735 1
    4937     4734     4742 1
    4938     4735     4736 1
    4939     4736     4737 1
    4940     4736     4740 1
    4941     4737     4738 1
    4942     4738     4739 1
    4943     4739     4740 1
    4944     4740     4741 1
    4945     4741     4845 1
    4946     4743     4744 1
    4947     4743     4759 1
    4948     4743     4760 1
    4949     4744     4745 1
    4950     4744     4751 1
    4951     4744     4761 1
    4952     4745     4746 1
    4953     4745     4762 1
    4954     4745     4763 1
    4955     4746     4747 1
    4956     4746     4764 1
    4957     4746     4765 1
    4958     4747     4748 1
    4959     4747     4766 1
    4960     4747     4767 1
    4961     4748     4749 1
    4962     4748     4768 1
    4963     4748     4769 1
    4964     4749     4750 1
    4965     4749     4770 1
    4966     4749     4771 1
    4967     4750     4772 1
    4968     4750     4773 1
    4969     4750     4774 1
    4970     4751     4752 1
    4971     4751     4775 1
    4972     4751     4776 1
    4973     4752     4753 1
    4974     4752     4777 1
    4975     4752     4778 1
    4976     4753     4754 1
    4977     4753     4779 1
    4978     4753     4780 1
    4979     4754     4755 1
    4980     4754     4781 1
    4981     4754     4782 1
    4982     4755     4756 1
    4983     4755     4783 1
    4984     4755     4784 1
    4985     4756     4757 1
    4986     4756     4785 1
    4987     4756     4786 1
    4988     4757     4758 1
    4989     4757     4787 1
    4990     4757     4788 1
    4991     4758     4789 1
    4992     4758     4790 1
    4993     4758     4791 1
    4994     4792     4793 1
    4995     4792     4808 1
    4996     4792     4809 1
    4997     4793     4794 1
    4998     4793     4800 1
    4999     4793     4810 1
    5000     4794     4795 1
    5001     4794     4811 1
    5002     4794     4812 1
    5003     4795     4796 1
    5004     4795     4813 1
    5005     4795     4814 1
    5006     4796     4797 1
    5007     4796     4815 1
    5008     4796     4816 1
    5009     4797     4798 1
    5010     4797     4817 1
    5011     4797     4818 1
    5012     4798     4799 1
    5013     4798     4819 1
    5014     4798     4820 1
    5015     4799     4821 1
    5016     4799     4822 1
    5017     4799     4823 1
    5018     4800     4801 1
    5019     4800     4824 1
    5020     4800     4825 1
    5021     4801     4802 1
    5022     4801     4826 1
    5023     4801     4827 1
    5024     4802     4803 1
    5025     4802     4828 1
    5026     4802     4829 1
    5027     4803     4804 1
    5028     4803     4830 1
    5029     4803     4831 1
    5030     4804     4805 1
    5031     4804     4832 1
    5032     4804     4833 1
    5033     4805     4806 1
    5034     4805     4834 1
    5035     4805     4835 1
    5036     4806     4807 1
    5037     4806     4836 1
    5038     4806     4837 1
    5039     4807     4838 1
    5040     4807     4839 1
    5041     4807     4840 1
    5042     4841     4842 1
    5043     4841     4848 1
    5044     4841     4864 1
    5045     4841     4913 1
    5046     4842     4843 1
    5047     4842     4846 1
    5048     4843     4844 1
    5049     4843     4847 1
    5050     4844     4845 1
    5051     4845     4846 1
    5052     4846     4852 1
    5053     4847     4848 1
    5054     4847     4851 1
    5055     4848     4849 1
    5056     4849     4850 1
    5057     4849     4853 1
    5058     4850     4851 1
    5059     4850     4856 1
    5060     4854     4855 1
    5061     4854     4862 1
    5062     4855     4856 1
    5063     4855     4863 1
    5064     4856     4857 1
    5065     4857     4858 1
    5066     4857     4861 1
    5067     4858     4859 1
    5068     4859     4860 1
    5069     4860     4861 1
    5070     4861     4862 1
    5071     4862     4966 1
    5072     4864     4865 1
    5073     4864     4880 1
    5074     4864     4881 1
    5075     4865     4866 1
    5076     4865     4872 1
    5077     4865     4882 1
    5078     4866     4867 1
    5079     4866     4883 1
    5080     4866     4884 1
    5081     4867     4868 1
    5082     4867     4885 1
    5083     4867     4886 1
    5084     4868     4869 1
    5085     4868     4887 1
    5086     4868     4888 1
    5087     4869     4870 1
    5088     4869     4889 1
    5089     4869     4890 1
    5090     4870     4871 1
    5091     4870     4891 1
    5092     4870     4892 1
    5093     4871     4893 1
    5094     4871     4894 1
    5095     4871     4895 1
    5096     4872     4873 1
    5097     4872     4896 1
    5098     4872     4897 1
    5099     4873     4874 1
    5100     4873     4898 1
    5101     4873     4899 1
    5102     4874     4875 1
    5103     4874     4900 1
    5104     4874     4901 1
    5105     4875     4876 1
    5106     4875     4902 1
    5107     4875     4903 1
    5108     4876     4877 1
    5109     4876     4904 1
    5110     4876     4905 1
    5111     4877     4878 1
    5112     4877     4906 1
    5113     4877     4907 1
    5114     4878     4879 1
    5115     4878     4908 1
    5116     4878     4909 1
    5117     4879     4910 1
    5118     4879     4911 1
    5119     4879     4912 1
    5120     4913     4914 1
    5121     4913     4929 1
    5122     4913     4930 1
    5123     4914     4915 1
    5124     4914     4921 1
    5125     4914     4931 1
    5126     4915     4916 1
    5127     4915     4932 1
    5128     4915     4933 1
    5129     4916     4917 1
    5130     4916     4934 1
    5131     4916     4935 1
    5132     4917     4918 1
    5133     4917     4936 1
    5134     4917     4937 1
    5135     4918     4919 1
    5136     4918     4938 1
    5137     4918     4939 1
    5138     4919     4920 1
    5139     4919     4940 1
    5140     4919     4941 1
    5141     4920     4942 1
    5142     4920     4943 1
    5143     4920     4944 1
    5144     4921     4922 1
    5145     4921     4945 1
    5146     4921     4946 1
    5147     4922     4923 1
    5148     4922     4947 1
    5149     4922     4948 1
    5150     4923     4924 1
    5151     4923     4949 1
    5152     4923     4950 1
    5153     4924     4925 1
    5154     4924     4951 1
    5155     4924     4952 1
    5156     4925     4926 1
    5157     4925     4953 1
    5158     4925     4954 1
    5159     4926     4927 1
    5160     4926     4955 1
    5161     4926     4956 1
    5162     4927     4928 1
    5163     4927     4957 1
    5164     4927     4958 1
    5165     4928     4959 1
    5166     4928     4960 1
    5167     4928     4961 1
    5168     4962     4963 1
    5169     4962     4969 1
    5170     4962     4985 1
    5171     4962     5034 1
    5172     4963     4964 1
    5173     4963     4967 1
    5174     4964     4965 1
    5175     4964     4968 1
    5176     4965     4966 1
    5177     4966     4967 1
    5178     4967     4973 1
    5179     4968     4969 1
    5180     4968     4972 1
    5181     4969     4970 1
    5182     4970     4971 1
    5183     4970     4974 1
    5184     4971     4972 1
    5185     4971     4977 1
    5186     4975     4976 1
    5187     4975     4983 1
    5188     4976     4977 1
    5189     4976     4984 1
    5190     4977     4978 1
    5191     4978     4979 1
    5192     4978     4982 1
    5193     4979     4980 1
    5194     4980     4981 1
    5195     4981     4982 1
    5196     4982     4983 1
    5197     4983     5087 1
    5198     4985     4986 1
    5199     4985     5001 1
    5200     4985     5002 1
    5201     4986     4987 1
    5202     4986     4993 1
    5203     4986     5003 1
    5204     4987     4988 1
    5205     4987     5004 1
    5206     4987     5005 1
    5207     4988     4989 1
    5208     4988     5006 1
    5209     4988     5007 1
    5210     4989     4990 1
    5211     4989     5008 1
    5212     4989     5009 1
    5213     4990     4991 1
    5214     4990     5010 1
    5215     4990     5011 1
    5216     4991     4992 1
    5217     4991     5012 1
    5218     4991     5013 1
    5219     4992     5014 1
    5220     4992     5015 1
    5221     4992     5016 1
    5222     4993     4994 1
    5223     4993     5017 1
    5224     4993     5018 1
    5225     4994     4995 1
    5226     4994     5019 1
    5227     4994     5020 1
    5228     4995     4996 1
    5229     4995     5021 1
    5230     4995     5022 1
    5231     4996     4997 1
    5232     4996     5023 1
    5233     4996     5024 1
    5234     4997     4998 1
    5235     4997     5025 1
    5236     4997     5026 1
    5237     4998     4999 1
    5238     4998     5027 1
    5239     4998     5028 1
    5240     4999     5000 1
    5241     4999     5029 1
    5242     4999     5030 1
    5243     5000     5031 1
    5244     5000     5032 1
    5245     5000     5033 1
    5246     5034     5035 1
    5247     5034     5050 1
    5248     5034     5051 1
    5249     5035     5036 1
    5250     5035     5042 1
    5251     5035     5052 1
    5252     5036     5037 1
    5253     5036     5053 1
    5254     5036     5054 1
    5255     5037     5038 1
    5256     5037     5055 1
    5257     5037     5056 1
    5258     5038     5039 1
    5259     5038     5057 1
    5260     5038     5058 1
    5261     5039     5040 1
    5262     5039     5059 1
    5263     5039     5060 1
    5264     5040     5041 1
    5265     5040     5061 1
    5266     5040     5062 1
    5267     5041     5063 1
    5268     5041     5064 1
    5269     5041     5065 1
    5270     5042     5043 1
    5271     5042     5066 1
    5272     5042     5067 1
    5273     5043     5044 1
    5274     5043     5068 1
    5275     5043     5069 1
    5276     5044     5045 1
    5277     5044     5070 1
    5278     5044     5071 1
    5279     5045     5046 1
    5280     5045     5072 1
    5281     5045     5073 1
    5282     5046     5047 1
    5283     5046     5074 1
    5284     5046     5075 1
    5285     5047     5048 1
    5286     5047     5076 1
    5287     5047     5077 1
    5288     5048     5049 1
    5289     5048     5078 1
    5290     5048     5079 1
    5291     5049     5080 1
    5292     5049     5081 1
    5293     5049     5082 1
    5294     5083     5084 1
    5295     5083     5090 1
    5296     5083     5106 1
    5297     5083     5155 1
    5298     5084     5085 1
    5299     5084     5088 1
    5300     5085     5086 1
    5301     5085     5089 1
    5302     5086     5087 1
    5303     5087     5088 1
    5304     5088     5094 1
    5305     5089     5090 1
    5306     5089     5093 1
    5307     5090     5091 1
    5308     5091     5092 1
    5309     5091     5095 1
    5310     5092     5093 1
    5311     5092     5098 1
    5312     5096     5097 1
    5313     5096     5104 1
    5314     5097     5098 1
    5315     5097     5105 1
    5316     5098     5099 1
    5317     5099     5100 1
    5318     5099     5103 1
    5319     5100     5101 1
    5320     5101     5102 1
    5321     5102     5103 1
    5322     5103     5104 1
    5323     5104     5208 1
    5324     5106     5107 1
    5325     5106     5122 1
    5326     5106     5123 1
    5327     5107     5108 1
    5328     5107     5114 1
    5329     5107     5124 1
    5330     5108     5109 1
    5331     5108     5125 1
    5332     5108     5126 1
    5333     5109     5110 1
    5334     5109     5127 1
    5335     5109     5128 1
    5336     5110     5111 1
    5337     5110     5129 1
    5338     5110     5130 1
    5339     5111     5112 1
    5340     5111     5131 1
    5341     5111     5132 1
    5342     5112     5113 1
    5343     5112     5133 1
    5344     5112     5134 1
    5345     5113     5135 1
    5346     5113     5136 1
    5347     5113     5137 1
    5348     5114     5115 1
    5349     5114     5138 1
    5350     5114     5139 1
    5351     5115     5116 1
    5352     5115     5140 1
    5353     5115     5141 1
    5354     5116     5117 1
    5355     5116     5142 1
    5356     5116     5143 1
    5357     5117     5118 1
    5358     5117     5144 1
    5359     5117     5145 1
    5360     5118     5119 1
    5361     5118     5146 1
    5362     5118     5147 1
    5363     5119     5120 1
    5364     5119     5148 1
    5365     5119     5149 1
    5366     5120     5121 1
    5367     5120     5150 1
    5368     5120     5151 1
    5369     5121     5152 1
    5370     5121     5153 1
    5371     5121     5154 1
    5372     5155     5156 1
    5373     5155     5171 1
    5374     5155     5172 1
    5375     5156     5157 1
    5376     5156     5163 1
    5377     5156     5173 1
    5378     5157     5158 1
    5379     5157     5174 1
    5380     5157     5175 1
    5381     5158     5159 1
    5382     5158     5176 1
    5383     5158     5177 1
    5384     5159     5160 1
    5385     5159     5178 1
    5386     5159     5179 1
    5387     5160     5161 1
    5388     5160     5180 1
    5389     5160     5181 1
    5390     5161     5162 1
    5391     5161     5182 1
    5392     5161     5183 1
    5393     5162     5184 1
    5394     5162     5185 1
    5395     5162     5186 1
    5396     5163     5164 1
    5397     5163     5187 1
    5398     5163     5188 1
    5399     5164     5165 1
    5400     5164     5189 1
    5401     5164     5190 1
    5402     5165     5166 1
    5403     5165     5191 1
    5404     5165     5192 1
    5405     5166     5167 1
    5406     5166     5193 1
    5407     5166     5194 1
    5408     5167     5168 1
    5409     5167     5195 1
    5410     5167     5196 1
    5411     5168     5169 1
    5412     5168     5197 1
    5413     5168     5198 1
    5414     5169     5170 1
    5415     5169     5199 1
    5416     5169     5200 1
    5417     5170     5201 1
    5418     5170     5202 1
    5419     5170     5203 1
    5420     5204     5205 1
    5421     5204     5211 1
    5422     5204     5227 1
    5423     5204     5276 1
    5424     5205     5206 1
    5425     5205     5209 1
    5426     5206     5207 1
    5427     5206     5210 1
    5428     5207     5208 1
    5429     5208     5209 1
    5430     5209     5215 1
    5431     5210     5211 1
    5432     5210     5214 1
    5433     5211     5212 1
    5434     5212     5213 1
    5435     5212     5216 1
    5436     5213     5214 1
    5437     5213     5219 1
    5438     5217     5218 1
    5439     5217     5225 1
    5440     5218     5219 1
    5441     5218     5226 1
    5442     5219     5220 1
    5443     5220     5221 1
    5444     5220     5224 1
    5445     5221     5222 1
    5446     5222     5223 1
    5447     5223     5224 1
    5448     5224     5225 1
    5449     5225     5329 1
    5450     5227     5228 1
    5451     5227     5243 1
    5452     5227     5244 1
    5453     5228     5229 1
    5454     5228     5235 1
    5455     5228     5245 1
    5456     5229     5230 1
    5457     5229     5246 1
    5458     5229     5247 1
    5459     5230     5231 1
    5460     5230     5248 1
    5461     5230     5249 1
    5462     5231     5232 1
    5463     5231     5250 1
    5464     5231     5251 1
    5465     5232     5233 1
    5466     5232     5252 1
    5467     5232     5253 1
    5468     5233     5234 1
    5469     5233     5254 1
    5470     5233     5255 1
    5471     5234     5256 1
    5472     5234     5257 1
    5473     5234     5258 1
    5474     5235     5236 1
    5475     5235     5259 1
    5476     5235     5260 1
    5477     5236     5237 1
    5478     5236     5261 1
    5479     5236     5262 1
    5480     5237     5238 1
    5481     5237     5263 1
    5482     5237     5264 1
    5483     5238     5239 1
    5484     5238     5265 1
    5485     5238     5266 1
    5486     5239     5240 1
    5487     5239     5267 1
    5488     5239     5268 1
    5489     5240     5241 1
    5490     5240     5269 1
    5491     5240     5270 1
    5492     5241     5242 1
    5493     5241     5271 1
    5494     5241     5272 1
    5495     5242     5273 1
    5496     5242     5274 1
    5497     5242     5275 1
    5498     5276     5277 1
    5499     5276     5292 1
    5500     5276     5293 1
    5501     5277     5278 1
    5502     5277     5284 1
    5503     5277     5294 1
    5504     5278     5279 1
    5505     5278     5295 1
    5506     5278     5296 1
    5507     5279     5280 1
    5508     5279     5297 1
    5509     5279     5298 1
    5510     5280     5281 1
    5511     5280     5299 1
    5512     5280     5300 1
    5513     5281     5282 1
    5514     5281     5301 1
    5515     5281     5302 1
    5516     5282     5283 1
    5517     5282     5303 1
    5518     5282     5304 1
    5519     5283     5305 1
    5520     5283     5306 1
    5521     5283     5307 1
    5522     5284     5285 1
    5523     5284     5308 1
    5524     5284     5309 1
    5525     5285     5286 1
    5526     5285     5310 1
    5527     5285     5311 1
    5528     5286     5287 1
    5529     5286     5312 1
    5530     5286     5313 1
    5531     5287     5288 1
    5532     5287     5314 1
    5533     5287     5315 1
    5534     5288     5289 1
    5535     5288     5316 1
    5536     5288     5317 1
    5537     5289     5290 1
    5538     5289     5318 1
    5539     5289     5319 1
    5540     5290     5291 1
    5541     5290     5320 1
    5542     5290     5321 1
    5543     5291     5322 1
    5544     5291     5323 1
    5545     5291     5324 1
    5546     5325     5326 1
    5547     5325     5332 1
    5548     5325     5348 1
    5549     5325     5397 1
    5550     5326     5327 1
    5551     5326     5330 1
    5552     5327     5328 1
    5553     5327     5331 1
    5554     5328     5329 1
    5555     5329     5330 1
    5556     5330     5336 1
    5557     5331     5332 1
    5558     5331     5335 1
    5559     5332     5333 1
    5560     5333     5334 1
    5561     5333     5337 1
    5562     5334     5335 1
    5563     5334     5340 1
    5564     5338     5339 1
    5565     5338     5346 1
    5566     5339     5340 1
    5567     5339     5347 1
    5568     5340     5341 1
    5569     5341     5342 1
    5570     5341     5345 1
    5571     5342     5343 1
    5572     5343     5344 1
    5573     5344     5345 1
    5574     5345     5346 1
    5575     5346     5450 1
    5576     5348     5349 1
    5577     5348     5364 1
    5578     5348     5365 1
    5579     5349     5350 1
    5580     5349     5356 1
    5581     5349     5366 1
    5582     5350     5351 1
    5583     5350     5367 1
    5584     5350     5368 1
    5585     5351     5352 1
    5586     5351     5369 1
    5587     5351     5370 1
    5588     5352     5353 1
    5589     5352     5371 1
    5590     5352     5372 1
    5591     5353     5354 1
    5592     5353     5373 1
    5593     5353     5374 1
    5594     5354     5355 1
    5595     5354     5375 1
    5596     5354     5376 1
    5597     5355     5377 1
    5598     5355     5378 1
    5599     5355     5379 1
    5600     5356     5357 1
    5601     5356     5380 1
    5602     5356     5381 1
    5603     5357     5358 1
    5604     5357     5382 1
    5605     5357     5383 1
    5606     5358     5359 1
    5607     5358     5384 1
    5608     5358     5385 1
    5609     5359     5360 1
    5610     5359     5386 1
    5611     5359     5387 1
    5612     5360     5361 1
    5613     5360     5388 1
    5614     5360     5389 1
    5615     5361     5362 1
    5616     5361     5390 1
    5617     5361     5391 1
    5618     5362     5363 1
    5619     5362     5392 1
    5620     5362     5393 1
    5621     5363     5394 1
    5622     5363     5395 1
    5623     5363     5396 1
    5624     5397     5398 1
    5625     5397     5413 1
    5626     5397     5414 1
    5627     5398     5399 1
    5628     5398     5405 1
    5629     5398     5415 1
    5630     5399     5400 1
    5631     5399     5416 1
    5632     5399     5417 1
    5633     5400     5401 1
    5634     5400     5418 1
    5635     5400     5419 1
    5636     5401     5402 1
    5637     5401     5420 1
    5638     5401     5421 1
    5639     5402     5403 1
    5640     5402     5422 1
    5641     5402     5423 1
    5642     5403     5404 1
    5643     5403     5424 1
    5644     5403     5425 1
    5645     5404     5426 1
    5646     5404     5427 1
    5647     5404     5428 1
    5648     5405     5406 1
    5649     5405     5429 1
    5650     5405     5430 1
    5651     5406     5407 1
    5652     5406     5431 1
    5653     5406     5432 1
    5654     5407     5408 1
    5655     5407     5433 1
    5656     5407     5434 1
    5657     5408     5409 1
    5658     5408     5435 1
    5659     5408     5436 1
    5660     5409     5410 1
    5661     5409     5437 1
    5662     5409     5438 1
    5663     5410     5411 1
    5664     5410     5439 1
    5665     5410     5440 1
    5666     5411     5412 1
    5667     5411     5441 1
    5668     5411     5442 1
    5669     5412     5443 1
    5670     5412     5444 1
    5671     5412     5445 1
    5672     5446     5447 1
    5673     5446     5453 1
    5674     5446     5469 1
    5675     5446     5518 1
    5676     5447     5448 1
    5677     5447     5451 1
    5678     5448     5449 1
    5679     5448     5452 1
    5680     5449     5450 1
    5681     5450     5451 1
    5682     5451     5457 1
    5683     5452     5453 1
    5684     5452     5456 1
    5685     5453     5454 1
    5686     5454     5455 1
    5687     5454     5458 1
    5688     5455     5456 1
    5689     5455     5461 1
    5690     5459     5460 1
    5691     5459     5467 1
    5692     5460     5461 1
    5693     5460     5468 1
    5694     5461     5462 1
    5695     5462     5463 1
    5696     5462     5466 1
    5697     5463     5464 1
    5698     5464     5465 1
    5699     5465     5466 1
    5700     5466     5467 1
    5701     5467     5571 1
    5702     5469     5470 1
    5703     5469     5485 1
    5704     5469     5486 1
    5705     5470     5471 1
    5706     5470     5477 1
    5707     5470     5487 1
    5708     5471     5472 1
    5709     5471     5488 1
    5710     5471     5489 1
    5711     5472     5473 1
    5712     5472     5490 1
    5713     5472     5491 1
    5714     5473     5474 1
    5715     5473     5492 1
    5716     5473     5493 1
    5717     5474     5475 1
    5718     5474     5494 1
    5719     5474     5495 1
    5720     5475     5476 1
    5721     5475     5496 1
    5722     5475     5497 1
    5723     5476     5498 1
    5724     5476     5499 1
    5725     5476     5500 1
    5726     5477     5478 1
    5727     5477     5501 1
    5728     5477     5502 1
    5729     5478     5479 1
    5730     5478     5503 1
    5731     5478     5504 1
    5732     5479     5480 1
    5733     5479     5505 1
    5734     5479     5506 1
    5735     5480     5481 1
    5736     5480     5507 1
    5737     5480     5508 1
    5738     5481     5482 1
    5739     5481     5509 1
    5740     5481     5510 1
    5741     5482     5483 1
    5742     5482     5511 1
    5743     5482     5512 1
    5744     5483     5484 1
    5745     5483     5513 1
    5746     5483     5514 1
    5747     5484     5515 1
    5748     5484     5516 1
    5749     5484     5517 1
    5750     5518     5519 1
    5751     5518     5534 1
    5752     5518     5535 1
    5753     5519     5520 1
    5754     5519     5526 1
    5755     5519     5536 1
    5756     5520     5521 1
    5757     5520     5537 1
    5758     5520     5538 1
    5759     5521     5522 1
    5760     5521     5539 1
    5761     5521     5540 1
    5762     5522     5523 1
    5763     5522     5541 1
    5764     5522     5542 1
    5765     5523     5524 1
    5766     5523     5543 1
    5767     5523     5544 1
    5768     5524     5525 1
    5769     5524     5545 1
    5770     5524     5546 1
    5771     5525     5547 1
    5772     5525     5548 1
    5773     5525     5549 1
    5774     5526     5527 1
    5775     5526     5550 1
    5776     5526     5551 1
    5777     5527     5528 1
    5778     5527     5552 1
    5779     5527     5553 1
    5780     5528     5529 1
    5781     5528     5554 1
    5782     5528     5555 1
    5783     5529     5530 1
    5784     5529     5556 1
    5785     5529     5557 1
    5786     5530     5531 1
    5787     5530     5558 1
    5788     5530     5559 1
    5789     5531     5532 1
    5790     5531     5560 1
    5791     5531     5561 1
    5792     5532     5533 1
    5793     5532     5562 1
    5794     5532     5563 1
    5795     5533     5564 1
    5796     5533     5565 1
    5797     5533     5566 1
    5798     5567     5568 1
    5799     5567     5574 1
    5800     5567     5590 1
    5801     5567     5639 1
    5802     5568     5569 1
    5803     5568     5572 1
    5804     5569     5570 1
    5805     5569     5573 1
    5806     5570     5571 1
    5807     5571     5572 1
    5808     5572     5578 1
    5809     5573     5574 1
    5810     5573     5577 1
    5811     5574     5575 1
    5812     5575     5576 1
    5813     5575     5579 1
    5814     5576     5577 1
    5815     5576     5582 1
    5816     5580     5581 1
    5817     5580     5588 1
    5818     5581     5582 1
    5819     5581     5589 1
    5820     5582     5583 1
    5821     5583     5584 1
    5822     5583     5587 1
    5823     5584     5585 1
    5824     5585     5586 1
    5825     5586     5587 1
    5826     5587     5588 1
    5827     5588     5692 1
    5828     5590     5591 1
    5829     5590     5606 1
    5830     5590     5607 1
    5831     5591     5592 1
    5832     5591     5598 1
    5833     5591     5608 1
    5834     5592     5593 1
    5835     5592     5609 1
    5836     5592     5610 1
    5837     5593     5594 1
    5838     5593     5611 1
    5839     5593     5612 1
    5840     5594     5595 1
    5841     5594     5613 1
    5842     5594     5614 1
    5843     5595     5596 1
    5844     5595     5615 1
    5845     5595     5616 1
    5846     5596     5597 1
    5847     5596     5617 1
    5848     5596     5618 1
    5849     5597     5619 1
    5850     5597     5620 1
    5851     5597     5621 1
    5852     5598     5599 1
    5853     5598     5622 1
    5854     5598     5623 1
    5855     5599     5600 1
    5856     5599     5624 1
    5857     5599     5625 1
    5858     5600     5601 1
    5859     5600     5626 1
    5860     5600     5627 1
    5861     5601     5602 1
    5862     5601     5628 1
    5863     5601     5629 1
    5864     5602     5603 1
    5865     5602     5630 1
    5866     5602     5631 1
    5867     5603     5604 1
    5868     5603     5632 1
    5869     5603     5633 1
    5870     5604     5605 1
    5871     5604     5634 1
    5872     5604     5635 1
    5873     5605     5636 1
    5874     5605     5637 1
    5875     5605     5638 1
    5876     5639     5640 1
    5877     5639     5655 1
    5878     5639     5656 1
    5879     5640     5641 1
    5880     5640     5647 1
    5881     5640     5657 1
    5882     5641     5642 1
    5883     5641     5658 1
    5884     5641     5659 1
    5885     5642     5643 1
    5886     5642     5660 1
    5887     5642     5661 1
    5888     5643     5644 1
    5889     5643     5662 1
    5890     5643     5663 1
    5891     5644     5645 1
    5892     5644     5664 1
    5893     5644     5665 1
    5894     5645     5646 1
    5895     5645     5666 1
    5896     5645     5667 1
    5897     5646     5668 1
    5898     5646     5669 1
    5899     5646     5670 1
    5900     5647     5648 1
    5901     5647     5671 1
    5902     5647     5672 1
    5903     5648     5649 1
    5904     5648     5673 1
    5905     5648     5674 1
    5906     5649     5650 1
    5907     5649     5675 1
    5908     5649     5676 1
    5909     5650     5651 1
    5910     5650     5677 1
    5911     5650     5678 1
    5912     5651     5652 1
    5913     5651     5679 1
    5914     5651     5680 1
    5915     5652     5653 1
    5916     5652     5681 1
    5917     5652     5682 1
    5918     5653     5654 1
    5919     5653     5683 1
    5920     5653     5684 1
    5921     5654     5685 1
    5922     5654     5686 1
    5923     5654     5687 1
    5924     5688     5689 1
    5925     5688     5695 1
    5926     5688     5711 1
    5927     5688     5760 1
    5928     5689     5690 1
    5929     5689     5693 1
    5930     5690     5691 1
    5931     5690     5694 1
    5932     5691     5692 1
    5933     5692     5693 1
    5934     5693     5699 1
    5935     5694     5695 1
    5936     5694     5698 1
    5937     5695     5696 1
    5938     5696     5697 1
    5939     5696     5700 1
    5940     5697     5698 1
    5941     5697     5703 1
    5942     5701     5702 1
    5943     5701     5709 1
    5944     5702     5703 1
    5945     5702     5710 1
    5946     5703     5704 1
    5947     5704     5705 1
    5948     5704     5708 1
    5949     5705     5706 1
    5950     5706     5707 1
    5951     5707     5708 1
    5952     5708     5709 1
    5953     5709     5813 1
    5954     5711     5712 1
    5955     5711     5727 1
    5956     5711     5728 1
    5957     5712     5713 1
    5958     5712     5719 1
    5959     5712     5729 1
    5960     5713     5714 1
    5961     5713     5730 1
    5962     5713     5731 1
    5963     5714     5715 1
    5964     5714     5732 1
    5965     5714     5733 1
    5966     5715     5716 1
    5967     5715     5734 1
    5968     5715     5735 1
    5969     5716     5717 1
    5970     5716     5736 1
    5971     5716     5737 1
    5972     5717     5718 1
    5973     5717     5738 1
    5974     5717     5739 1
    5975     5718     5740 1
    5976     5718     5741 1
    5977     5718     5742 1
    5978     5719     5720 1
    5979     5719     5743 1
    5980     5719     5744 1
    5981     5720     5721 1
    5982     5720     5745 1
    5983     5720     5746 1
    5984     5721     5722 1
    5985     5721     5747 1
    5986     5721     5748 1
    5987     5722     5723 1
    5988     5722     5749 1
    5989     5722     5750 1
    5990     5723     5724 1
    5991     5723     5751 1
    5992     5723     5752 1
    5993     5724     5725 1
    5994     5724     5753 1
    5995     5724     5754 1
    5996     5725     5726 1
    5997     5725     5755 1
    5998     5725     5756 1
    5999     5726     5757 1
    6000     5726     5758 1
    6001     5726     5759 1
    6002     5760     5761 1
    6003     5760     5776 1
    6004     5760     5777 1
    6005     5761     5762 1
    6006     5761     5768 1
    6007     5761     5778 1
    6008     5762     5763 1
    6009     5762     5779 1
    6010     5762     5780 1
    6011     5763     5764 1
    6012     5763     5781 1
    6013     5763     5782 1
    6014     5764     5765 1
    6015     5764     5783 1
    6016     5764     5784 1
    6017     5765     5766 1
    6018     5765     5785 1
    6019     5765     5786 1
    6020     5766     5767 1
    6021     5766     5787 1
    6022     5766     5788 1
    6023     5767     5789 1
    6024     5767     5790 1
    6025     5767     5791 1
    6026     5768     5769 1
    6027     5768     5792 1
    6028     5768     5793 1
    6029     5769     5770 1
    6030     5769     5794 1
    6031     5769     5795 1
    6032     5770     5771 1
    6033     5770     5796 1
    6034     5770     5797 1
    6035     5771     5772 1
    6036     5771     5798 1
    6037     5771     5799 1
    6038     5772     5773 1
    6039     5772     5800 1
    6040     5772     5801 1
    6041     5773     5774 1
    6042     5773     5802 1
    6043     5773     5803 1
    6044     5774     5775 1
    6045     5774     5804 1
    6046     5774     5805 1
    6047     5775     5806 1
    6048     5775     5807 1
    6049     5775     5808 1
    6050     5809     5810 1
    6051     5809     5816 1
    6052     5809     5832 1
    6053     5809     5881 1
    6054     5810     5811 1
    6055     5810     5814 1
    6056     5811     5812 1
    6057     5811     5815 1
    6058     5812     5813 1
    6059     5813     5814 1
    6060     5814     5820 1
    6061     5815     5816 1
    6062     5815     5819 1
    6063     5816     5817 1
    6064     5817     5818 1
    6065     5817     5821 1
    6066     5818     5819 1
    6067     5818     5824 1
    6068     5822     5823 1
    6069     5822     5830 1
    6070     5823     5824 1
    6071     5823     5831 1
    6072     5824     5825 1
    6073     5825     5826 1
    6074     5825     5829 1
    6075     5826     5827 1
    6076     5827     5828 1
    6077     5828     5829 1
    6078     5829     5830 1
    6079     5830     5934 1
    6080     5832     5833 1
    6081     5832     5848 1
    6082     5832     5849 1
    6083     5833     5834 1
    6084     5833     5840 1
    6085     5833     5850 1
    6086     5834     5835 1
    6087     5834     5851 1
    6088     5834     5852 1
    6089     5835     5836 1
    6090     5835     5853 1
    6091     5835     5854 1
    6092     5836     5837 1
    6093     5836     5855 1
    6094     5836     5856 1
    6095     5837     5838 1
    6096     5837     5857 1
    6097     5837     5858 1
    6098     5838     5839 1
    6099     5838     5859 1
    6100     5838     5860 1
    6101     5839     5861 1
    6102     5839     5862 1
    6103     5839     5863 1
    6104     5840     5841 1
    6105     5840     5864 1
    6106     5840     5865 1
    6107     5841     5842 1
    6108     5841     5866 1
    6109     5841     5867 1
    6110     5842     5843 1
    6111     5842     5868 1
    6112     5842     5869 1
    6113     5843     5844 1
    6114     5843     5870 1
    6115     5843     5871 1
    6116     5844     5845 1
    6117     5844     5872 1
    6118     5844     5873 1
    6119     5845     5846 1
    6120     5845     5874 1
    6121     5845     5875 1
    6122     5846     5847 1
    6123     5846     5876 1
    6124     5846     5877 1
    6125     5847     5878 1
    6126     5847     5879 1
    6127     5847     5880 1
    6128     5881     5882 1
    6129     5881     5897 1
    6130     5881     5898 1
    6131     5882     5883 1
    6132     5882     5889 1
    6133     5882     5899 1
    6134     5883     5884 1
    6135     5883     5900 1
    6136     5883     5901 1
    6137     5884     5885 1
    6138     5884     5902 1
    6139     5884     5903 1
    6140     5885     5886 1
    6141     5885     5904 1
    6142     5885     5905 1
    6143     5886     5887 1
    6144     5886     5906 1
    6145     5886     5907 1
    6146     5887     5888 1
    6147     5887     5908 1
    6148     5887     5909 1
    6149     5888     5910 1
    6150     5888     5911 1
    6151     5888     5912 1
    6152     5889     5890 1
    6153     5889     5913 1
    6154     5889     5914 1
    6155     5890     5891 1
    6156     5890     5915 1
    6157     5890     5916 1
    6158     5891     5892 1
    6159     5891     5917 1
    6160     5891     5918 1
    6161     5892     5893 1
    6162     5892     5919 1
    6163     5892     5920 1
    6164     5893     5894 1
    6165     5893     5921 1
    6166     5893     5922 1
    6167     5894     5895 1
    6168     5894     5923 1
    6169     5894     5924 1
    6170     5895     5896 1
    6171     5895     5925 1
    6172     5895     5926 1
    6173     5896     5927 1
    6174     5896     5928 1
    6175     5896     5929 1
    6176     5930     5931 1
    6177     5930     5937 1
    6178     5930     5953 1
    6179     5930     6002 1
    6180     5931     5932 1
    6181     5931     5935 1
    6182     5932     5933 1
    6183     5932     5936 1
    6184     5933     5934 1
    6185     5934     5935 1
    6186     5935     5941 1
    6187     5936     5937 1
    6188     5936     5940 1
    6189     5937     5938 1
    6190     5938     5939 1
    6191     5938     5942 1
    6192     5939     5940 1
    6193     5939     5945 1
    6194     5943     5944 1
    6195     5943     5951 1
    6196     5944     5945 1
    6197     5944     5952 1
    6198     5945     5946 1
    6199     5946     5947 1
    6200     5946     5950 1
    6201     5947     5948 1
    6202     5948     5949 1
    6203     5949     5950 1
    6204     5950     5951 1
    6205     5951     6055 1
    6206     5953     5954 1
    6207     5953     5969 1
    6208     5953     5970 1
    6209     5954     5955 1
    6210     5954     5961 1
    6211     5954     5971 1
    6212     5955     5956 1
    6213     5955     5972 1
    6214     5955     5973 1
    6215     5956     5957 1
    6216     5956     5974 1
    6217     5956     5975 1
    6218     5957     5958 1
    6219     5957     5976 1
    6220     5957     5977 1
    6221     5958     5959 1
    6222     5958     5978 1
    6223     5958     5979 1
    6224     5959     5960 1
    6225     5959     5980 1
    6226     5959     5981 1
    6227     5960     5982 1
    6228     5960     5983 1
    6229     5960     5984 1
    6230     5961     5962 1
    6231     5961     5985 1
    6232     5961     5986 1
    6233     5962     5963 1
    6234     5962     5987 1
    6235     5962     5988 1
    6236     5963     5964 1
    6237     5963     5989 1
    6238     5963     5990 1
    6239     5964     5965 1
    6240     5964     5991 1
    6241     5964     5992 1
    6242     5965     5966 1
    6243     5965     5993 1
    6244     5965     5994 1
    6245     5966     5967 1
    6246     5966     5995 1
    6247     5966     5996 1
    6248     5967     5968 1
    6249     5967     5997 1
    6250     5967     5998 1
    6251     5968     5999 1
    6252     5968     6000 1
    6253     5968     6001 1
    6254     6002     6003 1
    6255     6002     6018 1
    6256     6002     6019 1
    6257     6003     6004 1
    6258     6003     6010 1
    6259     6003     6020 1
    6260     6004     6005 1
    6261     6004     6021 1
    6262     6004     6022 1
    6263     6005     6006 1
    6264     6005     6023 1
    6265     6005     6024 1
    6266     6006     6007 1
    6267     6006     6025 1
    6268     6006     6026 1
    6269     6007     6008 1
    6270     6007     6027 1
    6271     6007     6028 1
    6272     6008     6009 1
    6273     6008     6029 1
    6274     6008     6030 1
    6275     6009     6031 1
    6276     6009     6032 1
    6277     6009     6033 1
    6278     6010     6011 1
    6279     6010     6034 1
    6280     6010     6035 1
    6281     6011     6012 1
    6282     6011     6036 1
    6283     6011     6037 1
    6284     6012     6013 1
    6285     6012     6038 1
    6286     6012     6039 1
    6287     6013     6014 1
    6288     6013     6040 1
    6289     6013     6041 1
    6290     6014     6015 1
    6291     6014     6042 1
    6292     6014     6043 1
    6293     6015     6016 1
    6294     6015     6044 1
    6295     6015     6045 1
    6296     6016     6017 1
    6297     6016     6046 1
    6298     6016     6047 1
    6299     6017     6048 1
    6300     6017     6049 1
    6301     6017     6050 1
    6302     6051     6052 1
    6303     6051     6058 1
    6304     6051     6074 1
    6305     6051     6123 1
    6306     6052     6053 1
    6307     6052     6056 1
    6308     6053     6054 1
    6309     6053     6057 1
    6310     6054     6055 1
    6311     6055     6056 1
    6312     6056     6062 1
    6313     6057     6058 1
    6314     6057     6061 1
    6315     6058     6059 1
    6316     6059     6060 1
    6317     6059     6063 1
    6318     6060     6061 1
    6319     6060     6066 1
    6320     6064     6065 1
    6321     6064     6072 1
    6322     6065     6066 1
    6323     6065     6073 1
    6324     6066     6067 1
    6325     6067     6068 1
    6326     6067     6071 1
    6327     6068     6069 1
    6328     6069     6070 1
    6329     6070     6071 1
    6330     6071     6072 1
    6331     6072     6176 1
    6332     6074     6075 1
    6333     6074     6090 1
    6334     6074     6091 1
    6335     6075     6076 1
    6336     6075     6082 1
    6337     6075     6092 1
    6338     6076     6077 1
    6339     6076     6093 1
    6340     6076     6094 1
    6341     6077     6078 1
    6342     6077     6095 1
    6343     6077     6096 1
    6344     6078     6079 1
    6345     6078     6097 1
    6346     6078     6098 1
    6347     6079     6080 1
    6348     6079     6099 1
    6349     6079     6100 1
    6350     6080     6081 1
    6351     6080     6101 1
    6352     6080     6102 1
    6353     6081     6103 1
    6354     6081     6104 1
    6355     6081     6105 1
    6356     6082     6083 1
    6357     6082     6106 1
    6358     6082     6107 1
    6359     6083     6084 1
    6360     6083     6108 1
    6361     6083     6109 1
    6362     6084     6085 1
    6363     6084     6110 1
    6364     6084     6111 1
    6365     6085     6086 1
    6366     6085     6112 1
    6367     6085     6113 1
    6368     6086     6087 1
    6369     6086     6114 1
    6370     6086     6115 1
    6371     6087     6088 1
    6372     6087     6116 1
    6373     6087     6117 1
    6374     6088     6089 1
    6375     6088     6118 1
    6376     6088     6119 1
    6377     6089     6120 1
    6378     6089     6121 1
    6379     6089     6122 1
    6380     6123     6124 1
    6381     6123     6139 1
    6382     6123     6140 1
    6383     6124     6125 1
    6384     6124     6131 1
    6385     6124     6141 1
    6386     6125     6126 1
    6387     6125     6142 1
    6388     6125     6143 1
    6389     6126     6127 1
    6390     6126     6144 1
    6391     6126     6145 1
    6392     6127     6128 1
    6393     6127     6146 1
    6394     6127     6147 1
    6395     6128     6129 1
    6396     6128     6148 1
    6397     6128     6149 1
    6398     6129     6130 1
    6399     6129     6150 1
    6400     6129     6151 1
    6401     6130     6152 1
    6402     6130     6153 1
    6403     6130     6154 1
    6404     6131     6132 1
    6405     6131     6155 1
    6406     6131     6156 1
    6407     6132     6133 1
    6408     6132     6157 1
    6409     6132     6158 1
    6410     6133     6134 1
    6411     6133     6159 1
    6412     6133     6160 1
    6413     6134     6135 1
    6414     6134     6161 1
    6415     6134     6162 1
    6416     6135     6136 1
    6417     6135     6163 1
    6418     6135     6164 1
    6419     6136     6137 1
    6420     6136     6165 1
    6421     6136     6166 1
    6422     6137     6138 1
    6423     6137     6167 1
    6424     6137     6168 1
    6425     6138     6169 1
    6426     6138     6170 1
    6427     6138     6171 1
    6428     6172     6173 1
    6429     6172     6179 1
    6430     6172     6195 1
    6431     6172     6244 1
    6432     6173     6174 1
    6433     6173     6177 1
    6434     6174     6175 1
    6435     6174     6178 1
    6436     6175     6176 1
    6437     6176     6177 1
    6438     6177     6183 1
    6439     6178     6179 1
    6440     6178     6182 1
    6441     6179     6180 1
    6442     6180     6181 1
    6443     6180     6184 1
    6444     6181     6182 1
    6445     6181     6187 1
    6446     6185     6186 1
    6447     6185     6193 1
    6448     6186     6187 1
    6449     6186     6194 1
    6450     6187     6188 1
    6451     6188     6189 1
    6452     6188     6192 1
    6453     6189     6190 1
    6454     6190     6191 1
    6455     6191     6192 1
    6456     6192     6193 1
    6457     6193     6297 1
    6458     6195     6196 1
    6459     6195     6211 1
    6460     6195     6212 1
    6461     6196     6197 1
    6462     6196     6203 1
    6463     6196     6213 1
    6464     6197     6198 1
    6465     6197     6214 1
    6466     6197     6215 1
    6467     6198     6199 1
    6468     6198     6216 1
    6469     6198     6217 1
    6470     6199     6200 1
    6471     6199     6218 1
    6472     6199     6219 1
    6473     6200     6201 1
    6474     6200     6220 1
    6475     6200     6221 1
    6476     6201     6202 1
    6477     6201     6222 1
    6478     6201     6223 1
    6479     6202     6224 1
    6480     6202     6225 1
    6481     6202     6226 1
    6482     6203     6204 1
    6483     6203     6227 1
    6484     6203     6228 1
    6485     6204     6205 1
    6486     6204     6229 1
    6487     6204     6230 1
    6488     6205     6206 1
    6489     6205     6231 1
    6490     6205     6232 1
    6491     6206     6207 1
    6492     6206     6233 1
    6493     6206     6234 1
    6494     6207     6208 1
    6495     6207     6235 1
    6496     6207     6236 1
    6497     6208     6209 1
    6498     6208     6237 1
    6499     6208     6238 1
    6500     6209     6210 1
    6501     6209     6239 1
    6502     6209     6240 1
    6503     6210     6241 1
    6504     6210     6242 1
    6505     6210     6243 1
    6506     6244     6245 1
    6507     6244     6260 1
    6508     6244     6261 1
    6509     6245     6246 1
    6510     6245     6252 1
    6511     6245     6262 1
    6512     6246     6247 1
    6513     6246     6263 1
    6514     6246     6264 1
    6515     6247     6248 1
    6516     6247     6265 1
    6517     6247     6266 1
    6518     6248     6249 1
    6519     6248     6267 1
    6520     6248     6268 1
    6521     6249     6250 1
    6522     6249     6269 1
    6523     6249     6270 1
    6524     6250     6251 1
    6525     6250     6271 1
    6526     6250     6272 1
    6527     6251     6273 1
    6528     6251     6274 1
    6529     6251     6275 1
    6530     6252     6253 1
    6531     6252     6276 1
    6532     6252     6277 1
    6533     6253     6254 1
    6534     6253     6278 1
    6535     6253     6279 1
    6536     6254     6255 1
    6537     6254     6280 1
    6538     6254     6281 1
    6539     6255     6256 1
    6540     6255     6282 1
    6541     6255     6283 1
    6542     6256     6257 1
    6543     6256     6284 1
    6544     6256     6285 1
    6545     6257     6258 1
    6546     6257     6286 1
    6547     6257     6287 1
    6548     6258     6259 1
    6549     6258     6288 1
    6550     6258     6289 1
    6551     6259     6290 1
    6552     6259     6291 1
    6553     6259     6292 1
    6554     6293     6294 1
    6555     6293     6300 1
    6556     6293     6316 1
    6557     6293     6365 1
    6558     6294     6295 1
    6559     6294     6298 1
    6560     6295     6296 1
    6561     6295     6299 1
    6562     6296     6297 1
    6563     6297     6298 1
    6564     6298     6304 1
    6565     6299     6300 1
    6566     6299     6303 1
    6567     6300     6301 1
    6568     6301     6302 1
    6569     6301     6305 1
    6570     6302     6303 1
    6571     6302     6308 1
    6572     6306     6307 1
    6573     6306     6314 1
    6574     6307     6308 1
    6575     6307     6315 1
    6576     6308     6309 1
    6577     6309     6310 1
    6578     6309     6313 1
    6579     6310     6311 1
    6580     6311     6312 1
    6581     6312     6313 1
    6582     6313     6314 1
    6583     6314     6418 1
    6584     6316     6317 1
    6585     6316     6332 1
    6586     6316     6333 1
    6587     6317     6318 1
    6588     6317     6324 1
    6589     6317     6334 1
    6590     6318     6319 1
    6591     6318     6335 1
    6592     6318     6336 1
    6593     6319     6320 1
    6594     6319     6337 1
    6595     6319     6338 1
    6596     6320     6321 1
    6597     6320     6339 1
    6598     6320     6340 1
    6599     6321     6322 1
    6600     6321     6341 1
    6601     6321     6342 1
    6602     6322     6323 1
    6603     6322     6343 1
    6604     6322     6344 1
    6605     6323     6345 1
    6606     6323     6346 1
    6607     6323     6347 1
    6608     6324     6325 1
    6609     6324     6348 1
    6610     6324     6349 1
    6611     6325     6326 1
    6612     6325     6350 1
    6613     6325     6351 1
    6614     6326     6327 1
    6615     6326     6352 1
    6616     6326     6353 1
    6617     6327     6328 1
    6618     6327     6354 1
    6619     6327     6355 1
    6620     6328     6329 1
    6621     6328     6356 1
    6622     6328     6357 1
    6623     6329     6330 1
    6624     6329     6358 1
    6625     6329     6359 1
    6626     6330     6331 1
    6627     6330     6360 1
    6628     6330     6361 1
    6629     6331     6362 1
    6630     6331     6363 1
    6631     6331     6364 1
    6632     6365     6366 1
    6633     6365     6381 1
    6634     6365     6382 1
    6635     6366     6367 1
    6636     6366     6373 1
    6637     6366     6383 1
    6638     6367     6368 1
    6639     6367     6384 1
    6640     6367     6385 1
    6641     6368     6369 1
    6642     6368     6386 1
    6643     6368     6387 1
    6644     6369     6370 1
    6645     6369     6388 1
    6646     6369     6389 1
    6647     6370     6371 1
    6648     6370     6390 1
    6649     6370     6391 1
    6650     6371     6372 1
    6651     6371     6392 1
    6652     6371     6393 1
    6653     6372     6394 1
    6654     6372     6395 1
    6655     6372     6396 1
    6656     6373     6374 1
    6657     6373     6397 1
    6658     6373     6398 1
    6659     6374     6375 1
    6660     6374     6399 1
    6661     6374     6400 1
    6662     6375     6376 1
    6663     6375     6401 1
    6664     6375     6402 1
    6665     6376     6377 1
    6666     6376     6403 1
    6667     6376     6404 1
    6668     6377     6378 1
    6669     6377     6405 1
    6670     6377     6406 1
    6671     6378     6379 1
    6672     6378     6407 1
    6673     6378     6408 1
    6674     6379     6380 1
    6675     6379     6409 1
    6676     6379     6410 1
    6677     6380     6411 1
    6678     6380     6412 1
    6679     6380     6413 1
    6680     6414     6415 1
    6681     6414     6421 1
    6682     6414     6437 1
    6683     6414     6486 1
    6684     6415     6416 1
    6685     6415     6419 1
    6686     6416     6417 1
    6687     6416     6420 1
    6688     6417     6418 1
    6689     6418     6419 1
    6690     6419     6425 1
    6691     6420     6421 1
    6692     6420     6424 1
    6693     6421     6422 1
    6694     6422     6423 1
    6695     6422     6426 1
    6696     6423     6424 1
    6697     6423     6429 1
    6698     6427     6428 1
    6699     6427     6435 1
    6700     6428     6429 1
    6701     6428     6436 1
    6702     6429     6430 1
    6703     6430     6431 1
    6704     6430     6434 1
    6705     6431     6432 1
    6706     6432     6433 1
    6707     6433     6434 1
    6708     6434     6435 1
    6709     6435     6539 1
    6710     6437     6438 1
    6711     6437     6453 1
    6712     6437     6454 1
    6713     6438     6439 1
    6714     6438     6445 1
    6715     6438     6455 1
    6716     6439     6440 1
    6717     6439     6456 1
    6718     6439     6457 1
    6719     6440     6441 1
    6720     6440     6458 1
    6721     6440     6459 1
    6722     6441     6442 1
    6723     6441     6460 1
    6724     6441     6461 1
    6725     6442     6443 1
    6726     6442     6462 1
    6727     6442     6463 1
    6728     6443     6444 1
    6729     6443     6464 1
    6730     6443     6465 1
    6731     6444     6466 1
    6732     6444     6467 1
    6733     6444     6468 1
    6734     6445     6446 1
    6735     6445     6469 1
    6736     6445     6470 1
    6737     6446     6447 1
    6738     6446     6471 1
    6739     6446     6472 1
    6740     6447     6448 1
    6741     6447     6473 1
    6742     6447     6474 1
    6743     6448     6449 1
    6744     6448     6475 1
    6745     6448     6476 1
    6746     6449     6450 1
    6747     6449     6477 1
    6748     6449     6478 1
    6749     6450     6451 1
    6750     6450     6479 1
    6751     6450     6480 1
    6752     6451     6452 1
    6753     6451     6481 1
    6754     6451     6482 1
    6755     6452     6483 1
    6756     6452     6484 1
    6757     6452     6485 1
    6758     6486     6487 1
    6759     6486     6502 1
    6760     6486     6503 1
    6761     6487     6488 1
    6762     6487     6494 1
    6763     6487     6504 1
    6764     6488     6489 1
    6765     6488     6505 1
    6766     6488     6506 1
    6767     6489     6490 1
    6768     6489     6507 1
    6769     6489     6508 1
    6770     6490     6491 1
    6771     6490     6509 1
    6772     6490     6510 1
    6773     6491     6492 1
    6774     6491     6511 1
    6775     6491     6512 1
    6776     6492     6493 1
    6777     6492     6513 1
    6778     6492     6514 1
    6779     6493     6515 1
    6780     6493     6516 1
    6781     6493     6517 1
    6782     6494     6495 1
    6783     6494     6518 1
    6784     6494     6519 1
    6785     6495     6496 1
    6786     6495     6520 1
    6787     6495     6521 1
    6788     6496     6497 1
    6789     6496     6522 1
    6790     6496     6523 1
    6791     6497     6498 1
    6792     6497     6524 1
    6793     6497     6525 1
    6794     6498     6499 1
    6795     6498     6526 1
    6796     6498     6527 1
    6797     6499     6500 1
    6798     6499     6528 1
    6799     6499     6529 1
    6800     6500     6501 1
    6801     6500     6530 1
    6802     6500     6531 1
    6803     6501     6532 1
    6804     6501     6533 1
    6805     6501     6534 1
    6806     6535     6536 1
    6807     6535     6542 1
    6808     6535     6558 1
    6809     6535     6607 1
    6810     6536     6537 1
    6811     6536     6540 1
    6812     6537     6538 1
    6813     6537     6541 1
    6814     6538     6539 1
    6815     6539     6540 1
    6816     6540     6546 1
    6817     6541     6542 1
    6818     6541     6545 1
    6819     6542     6543 1
    6820     6543     6544 1
    6821     6543     6547 1
    6822     6544     6545 1
    6823     6544     6550 1
    6824     6548     6549 1
    6825     6548     6556 1
    6826     6549     6550 1
    6827     6549     6557 1
    6828     6550     6551 1
    6829     6551     6552 1
    6830     6551     6555 1
    6831     6552     6553 1
    6832     6553     6554 1
    6833     6554     6555 1
    6834     6555     6556 1
    6835     6556     6660 1
    6836     6558     6559 1
    6837     6558     6574 1
    6838     6558     6575 1
    6839     6559     6560 1
    6840     6559     6566 1
    6841     6559     6576 1
    6842     6560     6561 1
    6843     6560     6577 1
    6844     6560     6578 1
    6845     6561     6562 1
    6846     6561     6579 1
    6847     6561     6580 1
    6848     6562     6563 1
    6849     6562     6581 1
    6850     6562     6582 1
    6851     6563     6564 1
    6852     6563     6583 1
    6853     6563     6584 1
    6854     6564     6565 1
    6855     6564     6585 1
    6856     6564     6586 1
    6857     6565     6587 1
    6858     6565     6588 1
    6859     6565     6589 1
    6860     6566     6567 1
    6861     6566     6590 1
    6862     6566     6591 1
    6863     6567     6568 1
    6864     6567     6592 1
    6865     6567     6593 1
    6866     6568     6569 1
    6867     6568     6594 1
    6868     6568     6595 1
    6869     6569     6570 1
    6870     6569     6596 1
    6871     6569     6597 1
    6872     6570     6571 1
    6873     6570     6598 1
    6874     6570     6599 1
    6875     6571     6572 1
    6876     6571     6600 1
    6877     6571     6601 1
    6878     6572     6573 1
    6879     6572     6602 1
    6880     6572     6603 1
    6881     6573     6604 1
    6882     6573     6605 1
    6883     6573     6606 1
    6884     6607     6608 1
    6885     6607     6623 1
    6886     6607     6624 1
    6887     6608     6609 1
    6888     6608     6615 1
    6889     6608     6625 1
    6890     6609     6610 1
    6891     6609     6626 1
    6892     6609     6627 1
    6893     6610     6611 1
    6894     6610     6628 1
    6895     6610     6629 1
    6896     6611     6612 1
    6897     6611     6630 1
    6898     6611     6631 1
    6899     6612     6613 1
    6900     6612     6632 1
    6901     6612     6633 1
    6902     6613     6614 1
    6903     6613     6634 1
    6904     6613     6635 1
    6905     6614     6636 1
    6906     6614     6637 1
    6907     6614     6638 1
    6908     6615     6616 1
    6909     6615     6639 1
    6910     6615     6640 1
    6911     6616     6617 1
    6912     6616     6641 1
    6913     6616     6642 1
    6914     6617     6618 1
    6915     6617     6643 1
    6916     6617     6644 1
    6917     6618     6619 1
    6918     6618     6645 1
    6919     6618     6646 1
    6920     6619     6620 1
    6921     6619     6647 1
    6922     6619     6648 1
    6923     6620     6621 1
    6924     6620     6649 1
    6925     6620     6650 1
    6926     6621     6622 1
    6927     6621     6651 1
    6928     6621     6652 1
    6929     6622     6653 1
    6930     6622     6654 1
    6931     6622     6655 1
    6932     6656     6657 1
    6933     6656     6663 1
    6934     6656     6679 1
    6935     6656     6728 1
    6936     6657     6658 1
    6937     6657     6661 1
    6938     6658     6659 1
    6939     6658     6662 1
    6940     6659     6660 1
    6941     6660     6661 1
    6942     6661     6667 1
    6943     6662     6663 1
    6944     6662     6666 1
    6945     6663     6664 1
    6946     6664     6665 1
    6947     6664     6668 1
    6948     6665     6666 1
    6949     6665     6671 1
    6950     6669     6670 1
    6951     6669     6677 1
    6952     6670     6671 1
    6953     6670     6678 1
    6954     6671     6672 1
    6955     6672     6673 1
    6956     6672     6676 1
    6957     6673     6674 1
    6958     6674     6675 1
    6959     6675     6676 1
    6960     6676     6677 1
    6961     6677     6781 1
    6962     6679     6680 1
    6963     6679     6695 1
    6964     6679     6696 1
    6965     6680     6681 1
    6966     6680     6687 1
    6967     6680     6697 1
    6968     6681     6682 1
    6969     6681     6698 1
    6970     6681     6699 1
    6971     6682     6683 1
    6972     6682     6700 1
    6973     6682     6701 1
    6974     6683     6684 1
    6975     6683     6702 1
    6976     6683     6703 1
    6977     6684     6685 1
    6978     6684     6704 1
    6979     6684     6705 1
    6980     6685     6686 1
    6981     6685     6706 1
    6982     6685     6707 1
    6983     6686     6708 1
    6984     6686     6709 1
    6985     6686     6710 1
    6986     6687     6688 1
    6987     6687     6711 1
    6988     6687     6712 1
    6989     6688     6689 1
    6990     6688     6713 1
    6991     6688     6714 1
    6992     6689     6690 1
    6993     6689     6715 1
    6994     6689     6716 1
    6995     6690     6691 1
    6996     6690     6717 1
    6997     6690     6718 1
    6998     6691     6692 1
    6999     6691     6719 1
    7000     6691     6720 1
    7001     6692     6693 1
    7002     6692     6721 1
    7003     6692     6722 1
    7004     6693     6694 1
    7005     6693     6723 1
    7006     6693     6724 1
    7007     6694     6725 1
    7008     6694     6726 1
    7009     6694     6727 1
    7010     6728     6729 1
    7011     6728     6744 1
    7012     6728     6745 1
    7013     6729     6730 1
    7014     6729     6736 1
    7015     6729     6746 1
    7016     6730     6731 1
    7017     6730     6747 1
    7018     6730     6748 1
    7019     6731     6732 1
    7020     6731     6749 1
    7021     6731     6750 1
    7022     6732     6733 1
    7023     6732     6751 1
    7024     6732     6752 1
    7025     6733     6734 1
    7026     6733     6753 1
    7027     6733     6754 1
    7028     6734     6735 1
    7029     6734     6755 1
    7030     6734     6756 1
    7031     6735     6757 1
    7032     6735     6758 1
    7033     6735     6759 1
    7034     6736     6737 1
    7035     6736     6760 1
    7036     6736     6761 1
    7037     6737     6738 1
    7038     6737     6762 1
    7039     6737     6763 1
    7040     6738     6739 1
    7041     6738     6764 1
    7042     6738     6765 1
    7043     6739     6740 1
    7044     6739     6766 1
    7045     6739     6767 1
    7046     6740     6741 1
    7047     6740     6768 1
    7048     6740     6769 1
    7049     6741     6742 1
    7050     6741     6770 1
    7051     6741     6771 1
    7052     6742     6743 1
    7053     6742     6772 1
    7054     6742     6773 1
    7055     6743     6774 1
    7056     6743     6775 1
    7057     6743     6776 1
    7058     6777     6778 1
    7059     6777     6784 1
    7060     6777     6800 1
    7061     6777     6849 1
    7062     6778     6779 1
    7063     6778     6782 1
    7064     6779     6780 1
    7065     6779     6783 1
    7066     6780     6781 1
    7067     6781     6782 1
    7068     6782     6788 1
    7069     6783     6784 1
    7070     6783     6787 1
    7071     6784     6785 1
    7072     6785     6786 1
    7073     6785     6789 1
    7074     6786     6787 1
    7075     6786     6792 1
    7076     6790     6791 1
    7077     6790     6798 1
    7078     6791     6792 1
    7079     6791     6799 1
    7080     6792     6793 1
    7081     6793     6794 1
    7082     6793     6797 1
    7083     6794     6795 1
    7084     6795     6796 1
    7085     6796     6797 1
    7086     6797     6798 1
    7087     6798     6902 1
    7088     6800     6801 1
    7089     6800     6816 1
    7090     6800     6817 1
    7091     6801     6802 1
    7092     6801     6808 1
    7093     6801     6818 1
    7094     6802     6803 1
    7095     6802     6819 1
    7096     6802     6820 1
    7097     6803     6804 1
    7098     6803     6821 1
    7099     6803     6822 1
    7100     6804     6805 1
    7101     6804     6823 1
    7102     6804     6824 1
    7103     6805     6806 1
    7104     6805     6825 1
    7105     6805     6826 1
    7106     6806     6807 1
    7107     6806     6827 1
    7108     6806     6828 1
    7109     6807     6829 1
    7110     6807     6830 1
    7111     6807     6831 1
    7112     6808     6809 1
    7113     6808     6832 1
    7114     6808     6833 1
    7115     6809     6810 1
    7116     6809     6834 1
    7117     6809     6835 1
    7118     6810     6811 1
    7119     6810     6836 1
    7120     6810     6837 1
    7121     6811     6812 1
    7122     6811     6838 1
    7123     6811     6839 1
    7124     6812     6813 1
    7125     6812     6840 1
    7126     6812     6841 1
    7127     6813     6814 1
    7128     6813     6842 1
    7129     6813     6843 1
    7130     6814     6815 1
    7131     6814     6844 1
    7132     6814     6845 1
    7133     6815     6846 1
    7134     6815     6847 1
    7135     6815     6848 1
    7136     6849     6850 1
    7137     6849     6865 1
    7138     6849     6866 1
    7139     6850     6851 1
    7140     6850     6857 1
    7141     6850     6867 1
    7142     6851     6852 1
    7143     6851     6868 1
    7144     6851     6869 1
    7145     6852     6853 1
    7146     6852     6870 1
    7147     6852     6871 1
    7148     6853     6854 1
    7149     6853     6872 1
    7150     6853     6873 1
    7151     6854     6855 1
    7152     6854     6874 1
    7153     6854     6875 1
    7154     6855     6856 1
    7155     6855     6876 1
    7156     6855     6877 1
    7157     6856     6878 1
    7158     6856     6879 1
    7159     6856     6880 1
    7160     6857     6858 1
    7161     6857     6881 1
    7162     6857     6882 1
    7163     6858     6859 1
    7164     6858     6883 1
    7165     6858     6884 1
    7166     6859     6860 1
    7167     6859     6885 1
    7168     6859     6886 1
    7169     6860     6861 1
    7170     6860     6887 1
    7171     6860     6888 1
    7172     6861     6862 1
    7173     6861     6889 1
    7174     6861     6890 1
    7175     6862     6863 1
    7176     6862     6891 1
    7177     6862     6892 1
    7178     6863     6864 1
    7179     6863     6893 1
    7180     6863     6894 1
    7181     6864     6895 1
    7182     6864     6896 1
    7183     6864     6897 1
    7184     6898     6899 1
    7185     6898     6905 1
    7186     6898     6921 1
    7187     6898     6970 1
    7188     6899     6900 1
    7189     6899     6903 1
    7190     6900     6901 1
    7191     6900     6904 1
    7192     6901     6902 1
    7193     6902     6903 1
    7194     6903     6909 1
    7195     6904     6905 1
    7196     6904     6908 1
    7197     6905     6906 1
    7198     6906     6907 1
    7199     6906     6910 1
    7200     6907     6908 1
    7201     6907     6913 1
    7202     6911     6912 1
    7203     6911     6919 1
    7204     6912     6913 1
    7205     6912     6920 1
    7206     6913     6914 1
    7207     6914     6915 1
    7208     6914     6918 1
    7209     6915     6916 1
    7210     6916     6917 1
    7211     6917     6918 1
    7212     6918     6919 1
    7213     6919     7023 1
    7214     6921     6922 1
    7215     6921     6937 1
    7216     6921     6938 1
    7217     6922     6923 1
    7218     6922     6929 1
    7219     6922     6939 1
    7220     6923     6924 1
    7221     6923     6940 1
    7222     6923     6941 1
    7223     6924     6925 1
    7224     6924     6942 1
    7225     6924     6943 1
    7226     6925     6926 1
    7227     6925     6944 1
    7228     6925     6945 1
    7229     6926     6927 1
    7230     6926     6946 1
    7231     6926     6947 1
    7232     6927     6928 1
    7233     6927     6948 1
    7234     6927     6949 1
    7235     6928     6950 1
    7236     6928     6951 1
    7237     6928     6952 1
    7238     6929     6930 1
    7239     6929     6953 1
    7240     6929     6954 1
    7241     6930     6931 1
    7242     6930     6955 1
    7243     6930     6956 1
    7244     6931     6932 1
    7245     6931     6957 1
    7246     6931     6958 1
    7247     6932     6933 1
    7248     6932     6959 1
    7249     6932     6960 1
    7250     6933     6934 1
    7251     6933     6961 1
    7252     6933     6962 1
    7253     6934     6935 1
    7254     6934     6963 1
    7255     6934     6964 1
    7256     6935     6936 1
    7257     6935     6965 1
    7258     6935     6966 1
    7259     6936     6967 1
    7260     6936     6968 1
    7261     6936     6969 1
    7262     6970     6971 1
    7263     6970     6986 1
    7264     6970     6987 1
    7265     6971     6972 1
    7266     6971     6978 1
    7267     6971     6988 1
    7268     6972     6973 1
    7269     6972     6989 1
    7270     6972     6990 1
    7271     6973     6974 1
    7272     6973     6991 1
    7273     6973     6992 1
    7274     6974     6975 1
    7275     6974     6993 1
    7276     6974     6994 1
    7277     6975     6976 1
    7278     6975     6995 1
    7279     6975     6996 1
    7280     6976     6977 1
    7281     6976     6997 1
    7282     6976     6998 1
    7283     6977     6999 1
    7284     6977     7000 1
    7285     6977     7001 1
    7286     6978     6979 1
    7287     6978     7002 1
    7288     6978     7003 1
    7289     6979     6980 1
    7290     6979     7004 1
    7291     6979     7005 1
    7292     6980     6981 1
    7293     6980     7006 1
    7294     6980     7007 1
    7295     6981     6982 1
    7296     6981     7008 1
    7297     6981     7009 1
    7298     6982     6983 1
    7299     6982     7010 1
    7300     6982     7011 1
    7301     6983     6984 1
    7302     6983     7012 1
    7303     6983     7013 1
    7304     6984     6985 1
    7305     6984     7014 1
    7306     6984     7015 1
    7307     6985     7016 1
    7308     6985     7017 1
    7309     6985     7018 1
    7310     7019     7020 1
    7311     7019     7026 1
    7312     7019     7042 1
    7313     7019     7091 1
    7314     7020     7021 1
    7315     7020     7024 1
    7316     7021     7022 1
    7317     7021     7025 1
    7318     7022     7023 1
    7319     7023     7024 1
    7320     7024     7030 1
    7321     7025     7026 1
    7322     7025     7029 1
    7323     7026     7027 1
    7324     7027     7028 1
    7325     7027     7031 1
    7326     7028     7029 1
    7327     7028     7034 1
    7328     7032     7033 1
    7329     7032     7040 1
    7330     7033     7034 1
    7331     7033     7041 1
    7332     7034     7035 1
    7333     7035     7036 1
    7334     7035     7039 1
    7335     7036     7037 1
    7336     7037     7038 1
    7337     7038     7039 1
    7338     7039     7040 1
    7339     7040     7144 1
    7340     7042     7043 1
    7341     7042     7058 1
    7342     7042     7059 1
    7343     7043     7044 1
    7344     7043     7050 1
    7345     7043     7060 1
    7346     7044     7045 1
    7347     7044     7061 1
    7348     7044     7062 1
    7349     7045     7046 1
    7350     7045     7063 1
    7351     7045     7064 1
    7352     7046     7047 1
    7353     7046     7065 1
    7354     7046     7066 1
    7355     7047     7048 1
    7356     7047     7067 1
    7357     7047     7068 1
    7358     7048     7049 1
    7359     7048     7069 1
    7360     7048     7070 1
    7361     7049     7071 1
    7362     7049     7072 1
    7363     7049     7073 1
    7364     7050     7051 1
    7365     7050     7074 1
    7366     7050     7075 1
    7367     7051     7052 1
    7368     7051     7076 1
    7369     7051     7077 1
    7370     7052     7053 1
    7371     7052     7078 1
    7372     7052     7079 1
    7373     7053     7054 1
    7374     7053     7080 1
    7375     7053     7081 1
    7376     7054     7055 1
    7377     7054     7082 1
    7378     7054     7083 1
    7379     7055     7056 1
    7380     7055     7084 1
    7381     7055     7085 1
    7382     7056     7057 1
    7383     7056     7086 1
    7384     7056     7087 1
    7385     7057     7088 1
    7386     7057     7089 1
    7387     7057     7090 1
    7388     7091     7092 1
    7389     7091     7107 1
    7390     7091     7108 1
    7391     7092     7093 1
    7392     7092     7099 1
    7393     7092     7109 1
    7394     7093     7094 1
    7395     7093     7110 1
    7396     7093     7111 1
    7397     7094     7095 1
    7398     7094     7112 1
    7399     7094     7113 1
    7400     7095     7096 1
    7401     7095     7114 1
    7402     7095     7115 1
    7403     7096     7097 1
    7404     7096     7116 1
    7405     7096     7117 1
    7406     7097     7098 1
    7407     7097     7118 1
    7408     7097     7119 1
    7409     7098     7120 1
    7410     7098     7121 1
    7411     7098     7122 1
    7412     7099     7100 1
    7413     7099     7123 1
    7414     7099     7124 1
    7415     7100     7101 1
    7416     7100     7125 1
    7417     7100     7126 1
    7418     7101     7102 1
    7419     7101     7127 1
    7420     7101     7128 1
    7421     7102     7103 1
    7422     7102     7129 1
    7423     7102     7130 1
    7424     7103     7104 1
    7425     7103     7131 1
    7426     7103     7132 1
    7427     7104     7105 1
    7428     7104     7133 1
    7429     7104     7134 1
    7430     7105     7106 1
    7431     7105     7135 1
    7432     7105     7136 1
    7433     7106     7137 1
    7434     7106     7138 1
    7435     7106     7139 1
    7436     7140     7141 1
    7437     7140     7147 1
    7438     7140     7163 1
    7439     7140     7212 1
    7440     7141     7142 1
    7441     7141     7145 1
    7442     7142     7143 1
    7443     7142     7146 1
    7444     7143     7144 1
    7445     7144     7145 1
    7446     7145     7151 1
    7447     7146     7147 1
    7448     7146     7150 1
    7449     7147     7148 1
    7450     7148     7149 1
    7451     7148     7152 1
    7452     7149     7150 1
    7453     7149     7155 1
    7454     7153     7154 1
    7455     7153     7161 1
    7456     7154     7155 1
    7457     7154     7162 1
    7458     7155     7156 1
    7459     7156     7157 1
    7460     7156     7160 1
    7461     7157     7158 1
    7462     7158     7159 1
    7463     7159     7160 1
    7464     7160     7161 1
    7465     7161     7265 1
    7466     7163     7164 1
    7467     7163     7179 1
    7468     7163     7180 1
    7469     7164     7165 1
    7470     7164     7171 1
    7471     7164     7181 1
    7472     7165     7166 1
    7473     7165     7182 1
    7474     7165     7183 1
    7475     7166     7167 1
    7476     7166     7184 1
    7477     7166     7185 1
    7478     7167     7168 1
    7479     7167     7186 1
    7480     7167     7187 1
    7481     7168     7169 1
    7482     7168     7188 1
    7483     7168     7189 1
    7484     7169     7170 1
    7485     7169     7190 1
    7486     7169     7191 1
    7487     7170     7192 1
    7488     7170     7193 1
    7489     7170     7194 1
    7490     7171     7172 1
    7491     7171     7195 1
    7492     7171     7196 1
    7493     7172     7173 1
    7494     7172     7197 1
    7495     7172     7198 1
    7496     7173     7174 1
    7497     7173     7199 1
    7498     7173     7200 1
    7499     7174     7175 1
    7500     7174     7201 1
    7501     7174     7202 1
    7502     7175     7176 1
    7503     7175     7203 1
    7504     7175     7204 1
    7505     7176     7177 1
    7506     7176     7205 1
    7507     7176     7206 1
    7508     7177     7178 1
    7509     7177     7207 1
    7510     7177     7208 1
    7511     7178     7209 1
    7512     7178     7210 1
    7513     7178     7211 1
    7514     7212     7213 1
    7515     7212     7228 1
    7516     7212     7229 1
    7517     7213     7214 1
    7518     7213     7220 1
    7519     7213     7230 1
    7520     7214     7215 1
    7521     7214     7231 1
    7522     7214     7232 1
    7523     7215     7216 1
    7524     7215     7233 1
    7525     7215     7234 1
    7526     7216     7217 1
    7527     7216     7235 1
    7528     7216     7236 1
    7529     7217     7218 1
    7530     7217     7237 1
    7531     7217     7238 1
    7532     7218     7219 1
    7533     7218     7239 1
    7534     7218     7240 1
    7535     7219     7241 1
    7536     7219     7242 1
    7537     7219     7243 1
    7538     7220     7221 1
    7539     7220     7244 1
    7540     7220     7245 1
    7541     7221     7222 1
    7542     7221     7246 1
    7543     7221     7247 1
    7544     7222     7223 1
    7545     7222     7248 1
    7546     7222     7249 1
    7547     7223     7224 1
    7548     7223     7250 1
    7549     7223     7251 1
    7550     7224     7225 1
    7551     7224     7252 1
    7552     7224     7253 1
    7553     7225     7226 1
    7554     7225     7254 1
    7555     7225     7255 1
    7556     7226     7227 1
    7557     7226     7256 1
    7558     7226     7257 1
    7559     7227     7258 1
    7560     7227     7259 1
    7561     7227     7260 1
    7562     7261     7262 1
    7563     7261     7268 1
    7564     7261     7284 1
    7565     7261     7333 1
    7566     7262     7263 1
    7567     7262     7266 1
    7568     7263     7264 1
    7569     7263     7267 1
    7570     7264     7265 1
    7571     7265     7266 1
    7572     7266     7272 1
    7573     7267     7268 1
    7574     7267     7271 1
    7575     7268     7269 1
    7576     7269     7270 1
    7577     7269     7273 1
    7578     7270     7271 1
    7579     7270     7276 1
    7580     7274     7275 1
    7581     7274     7282 1
    7582     7275     7276 1
    7583     7275     7283 1
    7584     7276     7277 1
    7585     7277     7278 1
    7586     7277     7281 1
    7587     7278     7279 1
    7588     7279     7280 1
    7589     7280     7281 1
    7590     7281     7282 1
    7591     7282     7386 1
    7592     7284     7285 1
    7593     7284     7300 1
    7594     7284     7301 1
    7595     7285     7286 1
    7596     7285     7292 1
    7597     7285     7302 1
    7598     7286     7287 1
    7599     7286     7303 1
    7600     7286     7304 1
    7601     7287     7288 1
    7602     7287     7305 1
    7603     7287     7306 1
    7604     7288     7289 1
    7605     7288     7307 1
    7606     7288     7308 1
    7607     7289     7290 1
    7608     7289     7309 1
    7609     7289     7310 1
    7610     7290     7291 1
    7611     7290     7311 1
    7612     7290     7312 1
    7613     7291     7313 1
    7614     7291     7314 1
    7615     7291     7315 1
    7616     7292     7293 1
    7617     7292     7316 1
    7618     7292     7317 1
    7619     7293     7294 1
    7620     7293     7318 1
    7621     7293     7319 1
    7622     7294     7295 1
    7623     7294     7320 1
    7624     7294     7321 1
    7625     7295     7296 1
    7626     7295     7322 1
    7627     7295     7323 1
    7628     7296     7297 1
    7629     7296     7324 1
    7630     7296     7325 1
    7631     7297     7298 1
    7632     7297     7326 1
    7633     7297     7327 1
    7634     7298     7299 1
    7635     7298     7328 1
    7636     7298     7329 1
    7637     7299     7330 1
    7638     7299     7331 1
    7639     7299     7332 1
    7640     7333     7334 1
    7641     7333     7349 1
    7642     7333     7350 1
    7643     7334     7335 1
    7644     7334     7341 1
    7645     7334     7351 1
    7646     7335     7336 1
    7647     7335     7352 1
    7648     7335     7353 1
    7649     7336     7337 1
    7650     7336     7354 1
    7651     7336     7355 1
    7652     7337     7338 1
    7653     7337     7356 1
    7654     7337     7357 1
    7655     7338     7339 1
    7656     7338     7358 1
    7657     7338     7359 1
    7658     7339     7340 1
    7659     7339     7360 1
    7660     7339     7361 1
    7661     7340     7362 1
    7662     7340     7363 1
    7663     7340     7364 1
    7664     7341     7342 1
    7665     7341     7365 1
    7666     7341     7366 1
    7667     7342     7343 1
    7668     7342     7367 1
    7669     7342     7368 1
    7670     7343     7344 1
    7671     7343     7369 1
    7672     7343     7370 1
    7673     7344     7345 1
    7674     7344     7371 1
    7675     7344     7372 1
    7676     7345     7346 1
    7677     7345     7373 1
    7678     7345     7374 1
    7679     7346     7347 1
    7680     7346     7375 1
    7681     7346     7376 1
    7682     7347     7348 1
    7683     7347     7377 1
    7684     7347     7378 1
    7685     7348     7379 1
    7686     7348     7380 1
    7687     7348     7381 1
    7688     7382     7383 1
    7689     7382     7389 1
    7690     7382     7405 1
    7691     7382     7454 1
    7692     7383     7384 1
    7693     7383     7387 1
    7694     7384     7385 1
    7695     7384     7388 1
    7696     7385     7386 1
    7697     7386     7387 1
    7698     7387     7393 1
    7699     7388     7389 1
    7700     7388     7392 1
    7701     7389     7390 1
    7702     7390     7391 1
    7703     7390     7394 1
    7704     7391     7392 1
    7705     7391     7397 1
    7706     7395     7396 1
    7707     7395     7403 1
    7708     7396     7397 1
    7709     7396     7404 1
    7710     7397     7398 1
    7711     7398     7399 1
    7712     7398     7402 1
    7713     7399     7400 1
    7714     7400     7401 1
    7715     7401     7402 1
    7716     7402     7403 1
    7717     7403     7507 1
    7718     7405     7406 1
    7719     7405     7421 1
    7720     7405     7422 1
    7721     7406     7407 1
    7722     7406     7413 1
    7723     7406     7423 1
    7724     7407     7408 1
    7725     7407     7424 1
    7726     7407     7425 1
    7727     7408     7409 1
    7728     7408     7426 1
    7729     7408     7427 1
    7730     7409     7410 1
    7731     7409     7428 1
    7732     7409     7429 1
    7733     7410     7411 1
    7734     7410     7430 1
    7735     7410     7431 1
    7736     7411     7412 1
    7737     7411     7432 1
    7738     7411     7433 1
    7739     7412     7434 1
    7740     7412     7435 1
    7741     7412     7436 1
    7742     7413     7414 1
    7743     7413     7437 1
    7744     7413     7438 1
    7745     7414     7415 1
    7746     7414     7439 1
    7747     7414     7440 1
    7748     7415     7416 1
    7749     7415     7441 1
    7750     7415     7442 1
    7751     7416     7417 1
    7752     7416     7443 1
    7753     7416     7444 1
    7754     7417     7418 1
    7755     7417     7445 1
    7756     7417     7446 1
    7757     7418     7419 1
    7758     7418     7447 1
    7759     7418     7448 1
    7760     7419     7420 1
    7761     7419     7449 1
    7762     7419     7450 1
    7763     7420     7451 1
    7764     7420     7452 1
    7765     7420     7453 1
    7766     7454     7455 1
    7767     7454     7470 1
    7768     7454     7471 1
    7769     7455     7456 1
    7770     7455     7462 1
    7771     7455     7472 1
    7772     7456     7457 1
    7773     7456     7473 1
    7774     7456     7474 1
    7775     7457     7458 1
    7776     7457     7475 1
    7777     7457     7476 1
    7778     7458     7459 1
    7779     7458     7477 1
    7780     7458     7478 1
    7781     7459     7460 1
    7782     7459     7479 1
    7783     7459     7480 1
    7784     7460     7461 1
    7785     7460     7481 1
    7786     7460     7482 1
    7787     7461     7483 1
    7788     7461     7484 1
    7789     7461     7485 1
    7790     7462     7463 1
    7791     7462     7486 1
    7792     7462     7487 1
    7793     7463     7464 1
    7794     7463     7488 1
    7795     7463     7489 1
    7796     7464     7465 1
    7797     7464     7490 1
    7798     7464     7491 1
    7799     7465     7466 1
    7800     7465     7492 1
    7801     7465     7493 1
    7802     7466     7467 1
    7803     7466     7494 1
    7804     7466     7495 1
    7805     7467     7468 1
    7806     7467     7496 1
    7807     7467     7497 1
    7808     7468     7469 1
    7809     7468     7498 1
    7810     7468     7499 1
    7811     7469     7500 1
    7812     7469     7501 1
    7813     7469     7502 1
    7814     7503     7504 1
    7815     7503     7510 1
    7816     7503     7526 1
    7817     7503     7575 1
    7818     7504     7505 1
    7819     7504     7508 1
    7820     7505     7506 1
    7821     7505     7509 1
    7822     7506     7507 1
    7823     7507     7508 1
    7824     7508     7514 1
    7825     7509     7510 1
    7826     7509     7513 1
    7827     7510     7511 1
    7828     7511     7512 1
    7829     7511     7515 1
    7830     7512     7513 1
    7831     7512     7518 1
    7832     7516     7517 1
    7833     7516     7524 1
    7834     7517     7518 1
    7835     7517     7525 1
    7836     7518     7519 1
    7837     7519     7520 1
    7838     7519     7523 1
    7839     7520     7521 1
    7840     7521     7522 1
    7841     7522     7523 1
    7842     7523     7524 1
    7843     7524     7628 1
    7844     7526     7527 1
    7845     7526     7542 1
    7846     7526     7543 1
    7847     7527     7528 1
    7848     7527     7534 1
    7849     7527     7544 1
    7850     7528     7529 1
    7851     7528     7545 1
    7852     7528     7546 1
    7853     7529     7530 1
    7854     7529     7547 1
    7855     7529     7548 1
    7856     7530     7531 1
    7857     7530     7549 1
    7858     7530     7550 1
    7859     7531     7532 1
    7860     7531     7551 1
    7861     7531     7552 1
    7862     7532     7533 1
    7863     7532     7553 1
    7864     7532     7554 1
    7865     7533     7555 1
    7866     7533     7556 1
    7867     7533     7557 1
    7868     7534     7535 1
    7869     7534     7558 1
    7870     7534     7559 1
    7871     7535     7536 1
    7872     7535     7560 1
    7873     7535     7561 1
    7874     7536     7537 1
    7875     7536     7562 1
    7876     7536     7563 1
    7877     7537     7538 1
    7878     7537     7564 1
    7879     7537     7565 1
    7880     7538     7539 1
    7881     7538     7566 1
    7882     7538     7567 1
    7883     7539     7540 1
    7884     7539     7568 1
    7885     7539     7569 1
    7886     7540     7541 1
    7887     7540     7570 1
    7888     7540     7571 1
    7889     7541     7572 1
    7890     7541     7573 1
    7891     7541     7574 1
    7892     7575     7576 1
    7893     7575     7591 1
    7894     7575     7592 1
    7895     7576     7577 1
    7896     7576     7583 1
    7897     7576     7593 1
    7898     7577     7578 1
    7899     7577     7594 1
    7900     7577     7595 1
    7901     7578     7579 1
    7902     7578     7596 1
    7903     7578     7597 1
    7904     7579     7580 1
    7905     7579     7598 1
    7906     7579     7599 1
    7907     7580     7581 1
    7908     7580     7600 1
    7909     7580     7601 1
    7910     7581     7582 1
    7911     7581     7602 1
    7912     7581     7603 1
    7913     7582     7604 1
    7914     7582     7605 1
    7915     7582     7606 1
    7916     7583     7584 1
    7917     7583     7607 1
    7918     7583     7608 1
    7919     7584     7585 1
    7920     7584     7609 1
    7921     7584     7610 1
    7922     7585     7586 1
    7923     7585     7611 1
    7924     7585     7612 1
    7925     7586     7587 1
    7926     7586     7613 1
    7927     7586     7614 1
    7928     7587     7588 1
    7929     7587     7615 1
    7930     7587     7616 1
    7931     7588     7589 1
    7932     7588     7617 1
    7933     7588     7618 1
    7934     7589     7590 1
    7935     7589     7619 1
    7936     7589     7620 1
    7937     7590     7621 1
    7938     7590     7622 1
    7939     7590     7623 1
    7940     7624     7625 1
    7941     7624     7631 1
    7942     7624     7647 1
    7943     7624     7696 1
    7944     7625     7626 1
    7945     7625     7629 1
    7946     7626     7627 1
    7947     7626     7630 1
    7948     7627     7628 1
    7949     7628     7629 1
    7950     7629     7635 1
    7951     7630     7631 1
    7952     7630     7634 1
    7953     7631     7632 1
    7954     7632     7633 1
    7955     7632     7636 1
    7956     7633     7634 1
    7957     7633     7639 1
    7958     7637     7638 1
    7959     7637     7645 1
    7960     7638     7639 1
    7961     7638     7646 1
    7962     7639     7640 1
    7963     7640     7641 1
    7964     7640     7644 1
    7965     7641     7642 1
    7966     7642     7643 1
    7967     7643     7644 1
    7968     7644     7645 1
    7969     7645     7749 1
    7970     7647     7648 1
    7971     7647     7663 1
    7972     7647     7664 1
    7973     7648     7649 1
    7974     7648     7655 1
    7975     7648     7665 1
    7976     7649     7650 1
    7977     7649     7666 1
    7978     7649     7667 1
    7979     7650     7651 1
    7980     7650     7668 1
    7981     7650     7669 1
    7982     7651     7652 1
    7983     7651     7670 1
    7984     7651     7671 1
    7985     7652     7653 1
    7986     7652     7672 1
    7987     7652     7673 1
    7988     7653     7654 1
    7989     7653     7674 1
    7990     7653     7675 1
    7991     7654     7676 1
    7992     7654     7677 1
    7993     7654     7678 1
    7994     7655     7656 1
    7995     7655     7679 1
    7996     7655     7680 1
    7997     7656     7657 1
    7998     7656     7681 1
    7999     7656     7682 1
    8000     7657     7658 1
    8001     7657     7683 1
    8002     7657     7684 1
    8003     7658     7659 1
    8004     7658     7685 1
    8005     7658     7686 1
    8006     7659     7660 1
    8007     7659     7687 1
    8008     7659     7688 1
    8009     7660     7661 1
    8010     7660     7689 1
    8011     7660     7690 1
    8012     7661     7662 1
    8013     7661     7691 1
    8014     7661     7692 1
    8015     7662     7693 1
    8016     7662     7694 1
    8017     7662     7695 1
    8018     7696     7697 1
    8019     7696     7712 1
    8020     7696     7713 1
    8021     7697     7698 1
    8022     7697     7704 1
    8023     7697     7714 1
    8024     7698     7699 1
    8025     7698     7715 1
    8026     7698     7716 1
    8027     7699     7700 1
    8028     7699     7717 1
    8029     7699     7718 1
    8030     7700     7701 1
    8031     7700     7719 1
    8032     7700     7720 1
    8033     7701     7702 1
    8034     7701     7721 1
    8035     7701     7722 1
    8036     7702     7703 1
    8037     7702     7723 1
    8038     7702     7724 1
    8039     7703     7725 1
    8040     7703     7726 1
    8041     7703     7727 1
    8042     7704     7705 1
    8043     7704     7728 1
    8044     7704     7729 1
    8045     7705     7706 1
    8046     7705     7730 1
    8047     7705     7731 1
    8048     7706     7707 1
    8049     7706     7732 1
    8050     7706     7733 1
    8051     7707     7708 1
    8052     7707     7734 1
    8053     7707     7735 1
    8054     7708     7709 1
    8055     7708     7736 1
    8056     7708     7737 1
    8057     7709     7710 1
    8058     7709     7738 1
    8059     7709     7739 1
    8060     7710     7711 1
    8061     7710     7740 1
    8062     7710     7741 1
    8063     7711     7742 1
    8064     7711     7743 1
    8065     7711     7744 1
    8066     7745     7746 1
    8067     7745     7752 1
    8068     7745     7768 1
    8069     7745     7817 1
    8070     7746     7747 1
    8071     7746     7750 1
    8072     7747     7748 1
    8073     7747     7751 1
    8074     7748     7749 1
    8075     7749     7750 1
    8076     7750     7756 1
    8077     7751     7752 1
    8078     7751     7755 1
    8079     7752     7753 1
    8080     7753     7754 1
    8081     7753     7757 1
    8082     7754     7755 1
    8083     7754     7760 1
    8084     7758     7759 1
    8085     7758     7766 1
    8086     7759     7760 1
    8087     7759     7767 1
    8088     7760     7761 1
    8089     7761     7762 1
    8090     7761     7765 1
    8091     7762     7763 1
    8092     7763     7764 1
    8093     7764     7765 1
    8094     7765     7766 1
    8095     7766     7870 1
    8096     7768     7769 1
    8097     7768     7784 1
    8098     7768     7785 1
    8099     7769     7770 1
    8100     7769     7776 1
    8101     7769     7786 1
    8102     7770     7771 1
    8103     7770     7787 1
    8104     7770     7788 1
    8105     7771     7772 1
    8106     7771     7789 1
    8107     7771     7790 1
    8108     7772     7773 1
    8109     7772     7791 1
    8110     7772     7792 1
    8111     7773     7774 1
    8112     7773     7793 1
    8113     7773     7794 1
    8114     7774     7775 1
    8115     7774     7795 1
    8116     7774     7796 1
    8117     7775     7797 1
    8118     7775     7798 1
    8119     7775     7799 1
    8120     7776     7777 1
    8121     7776     7800 1
    8122     7776     7801 1
    8123     7777     7778 1
    8124     7777     7802 1
    8125     7777     7803 1
    8126     7778     7779 1
    8127     7778     7804 1
    8128     7778     7805 1
    8129     7779     7780 1
    8130     7779     7806 1
    8131     7779     7807 1
    8132     7780     7781 1
    8133     7780     7808 1
    8134     7780     7809 1
    8135     7781     7782 1
    8136     7781     7810 1
    8137     7781     7811 1
    8138     7782     7783 1
    8139     7782     7812 1
    8140     7782     7813 1
    8141     7783     7814 1
    8142     7783     7815 1
    8143     7783     7816 1
    8144     7817     7818 1
    8145     7817     7833 1
    8146     7817     7834 1
    8147     7818     7819 1
    8148     7818     7825 1
    8149     7818     7835 1
    8150     7819     7820 1
    8151     7819     7836 1
    8152     7819     7837 1
    8153     7820     7821 1
    8154     7820     7838 1
    8155     7820     7839 1
    8156     7821     7822 1
    8157     7821     7840 1
    8158     7821     7841 1
    8159     7822     7823 1
    8160     7822     7842 1
    8161     7822     7843 1
    8162     7823     7824 1
    8163     7823     7844 1
    8164     7823     7845 1
    8165     7824     7846 1
    8166     7824     7847 1
    8167     7824     7848 1
    8168     7825     7826 1
    8169     7825     7849 1
    8170     7825     7850 1
    8171     7826     7827 1
    8172     7826     7851 1
    8173     7826     7852 1
    8174     7827     7828 1
    8175     7827     7853 1
    8176     7827     7854 1
    8177     7828     7829 1
    8178     7828     7855 1
    8179     7828     7856 1
    8180     7829     7830 1
    8181     7829     7857 1
    8182     7829     7858 1
    8183     7830     7831 1
    8184     7830     7859 1
    8185     7830     7860 1
    8186     7831     7832 1
    8187     7831     7861 1
    8188     7831     7862 1
    8189     7832     7863 1
    8190     7832     7864 1
    8191     7832     7865 1
    8192     7866     7867 1
    8193     7866     7873 1
    8194     7866     7889 1
    8195     7866     7938 1
    8196     7867     7868 1
    8197     7867     7871 1
    8198     7868     7869 1
    8199     7868     7872 1
    8200     7869     7870 1
    8201     7870     7871 1
    8202     7871     7877 1
    8203     7872     7873 1
    8204     7872     7876 1
    8205     7873     7874 1
    8206     7874     7875 1
    8207     7874     7878 1
    8208     7875     7876 1
    8209     7875     7881 1
    8210     7879     7880 1
    8211     7879     7887 1
    8212     7880     7881 1
    8213     7880     7888 1
    8214     7881     7882 1
    8215     7882     7883 1
    8216     7882     7886 1
    8217     7883     7884 1
    8218     7884     7885 1
    8219     7885     7886 1
    8220     7886     7887 1
    8221     7887     7991 1
    8222     7889     7890 1
    8223     7889     7905 1
    8224     7889     7906 1
    8225     7890     7891 1
    8226     7890     7897 1
    8227     7890     7907 1
    8228     7891     7892 1
    8229     7891     7908 1
    8230     7891     7909 1
    8231     7892     7893 1
    8232     7892     7910 1
    8233     7892     7911 1
    8234     7893     7894 1
    8235     7893     7912 1
    8236     7893     7913 1
    8237     7894     7895 1
    8238     7894     7914 1
    8239     7894     7915 1
    8240     7895     7896 1
    8241     7895     7916 1
    8242     7895     7917 1
    8243     7896     7918 1
    8244     7896     7919 1
    8245     7896     7920 1
    8246     7897     7898 1
    8247     7897     7921 1
    8248     7897     7922 1
    8249     7898     7899 1
    8250     7898     7923 1
    8251     7898     7924 1
    8252     7899     7900 1
    8253     7899     7925 1
    8254     7899     7926 1
    8255     7900     7901 1
    8256     7900     7927 1
    8257     7900     7928 1
    8258     7901     7902 1
    8259     7901     7929 1
    8260     7901     7930 1
    8261     7902     7903 1
    8262     7902     7931 1
    8263     7902     7932 1
    8264     7903     7904 1
    8265     7903     7933 1
    8266     7903     7934 1
    8267     7904     7935 1
    8268     7904     7936 1
    8269     7904     7937 1
    8270     7938     7939 1
    8271     7938     7954 1
    8272     7938     7955 1
    8273     7939     7940 1
    8274     7939     7946 1
    8275     7939     7956 1
    8276     7940     7941 1
    8277     7940     7957 1
    8278     7940     7958 1
    8279     7941     7942 1
    8280     7941     7959 1
    8281     7941     7960 1
    8282     7942     7943 1
    8283     7942     7961 1
    8284     7942     7962 1
    8285     7943     7944 1
    8286     7943     7963 1
    8287     7943     7964 1
    8288     7944     7945 1
    8289     7944     7965 1
    8290     7944     7966 1
    8291     7945     7967 1
    8292     7945     7968 1
    8293     7945     7969 1
    8294     7946     7947 1
    8295     7946     7970 1
    8296     7946     7971 1
    8297     7947     7948 1
    8298     7947     7972 1
    8299     7947     7973 1
    8300     7948     7949 1
    8301     7948     7974 1
    8302     7948     7975 1
    8303     7949     7950 1
    8304     7949     7976 1
    8305     7949     7977 1
    8306     7950     7951 1
    8307     7950     7978 1
    8308     7950     7979 1
    8309     7951     7952 1
    8310     7951     7980 1
    8311     7951     7981 1
    8312     7952     7953 1
    8313     7952     7982 1
    8314     7952     7983 1
    8315     7953     7984 1
    8316     7953     7985 1
    8317     7953     7986 1
    8318     7987     7988 1
    8319     7987     7994 1
    8320     7987     8010 1
    8321     7987     8059 1
    8322     7988     7989 1
    8323     7988     7992 1
    8324     7989     7990 1
    8325     7989     7993 1
    8326     7990     7991 1
    8327     7991     7992 1
    8328     7992     7998 1
    8329     7993     7994 1
    8330     7993     7997 1
    8331     7994     7995 1
    8332     7995     7996 1
    8333     7995     7999 1
    8334     7996     7997 1
    8335     7996     8002 1
    8336     8000     8001 1
    8337     8000     8008 1
    8338     8001     8002 1
    8339     8001     8009 1
    8340     8002     8003 1
    8341     8003     8004 1
    8342     8003     8007 1
    8343     8004     8005 1
    8344     8005     8006 1
    8345     8006     8007 1
    8346     8007     8008 1
    8347     8008     8112 1
    8348     8010     8011 1
    8349     8010     8026 1
    8350     8010     8027 1
    8351     8011     8012 1
    8352     8011     8018 1
    8353     8011     8028 1
    8354     8012     8013 1
    8355     8012     8029 1
    8356     8012     8030 1
    8357     8013     8014 1
    8358     8013     8031 1
    8359     8013     8032 1
    8360     8014     8015 1
    8361     8014     8033 1
    8362     8014     8034 1
    8363     8015     8016 1
    8364     8015     8035 1
    8365     8015     8036 1
    8366     8016     8017 1
    8367     8016     8037 1
    8368     8016     8038 1
    8369     8017     8039 1
    8370     8017     8040 1
    8371     8017     8041 1
    8372     8018     8019 1
    8373     8018     8042 1
    8374     8018     8043 1
    8375     8019     8020 1
    8376     8019     8044 1
    8377     8019     8045 1
    8378     8020     8021 1
    8379     8020     8046 1
    8380     8020     8047 1
    8381     8021     8022 1
    8382     8021     8048 1
    8383     8021     8049 1
    8384     8022     8023 1
    8385     8022     8050 1
    8386     8022     8051 1
    8387     8023     8024 1
    8388     8023     8052 1
    8389     8023     8053 1
    8390     8024     8025 1
    8391     8024     8054 1
    8392     8024     8055 1
    8393     8025     8056 1
    8394     8025     8057 1
    8395     8025     8058 1
    8396     8059     8060 1
    8397     8059     8075 1
    8398     8059     8076 1
    8399     8060     8061 1
    8400     8060     8067 1
    8401     8060     8077 1
    8402     8061     8062 1
    8403     8061     8078 1
    8404     8061     8079 1
    8405     8062     8063 1
    8406     8062     8080 1
    8407     8062     8081 1
    8408     8063     8064 1
    8409     8063     8082 1
    8410     8063     8083 1
    8411     8064     8065 1
    8412     8064     8084 1
    8413     8064     8085 1
    8414     8065     8066 1
    8415     8065     8086 1
    8416     8065     8087 1
    8417     8066     8088 1
    8418     8066     8089 1
    8419     8066     8090 1
    8420     8067     8068 1
    8421     8067     8091 1
    8422     8067     8092 1
    8423     8068     8069 1
    8424     8068     8093 1
    8425     8068     8094 1
    8426     8069     8070 1
    8427     8069     8095 1
    8428     8069     8096 1
    8429     8070     8071 1
    8430     8070     8097 1
    8431     8070     8098 1
    8432     8071     8072 1
    8433     8071     8099 1
    8434     8071     8100 1
    8435     8072     8073 1
    8436     8072     8101 1
    8437     8072     8102 1
    8438     8073     8074 1
    8439     8073     8103 1
    8440     8073     8104 1
    8441     8074     8105 1
    8442     8074     8106 1
    8443     8074     8107 1
    8444     8108     8109 1
    8445     8108     8115 1
    8446     8108     8131 1
    8447     8108     8180 1
    8448     8109     8110 1
    8449     8109     8113 1
    8450     8110     8111 1
    8451     8110     8114 1
    8452     8111     8112 1
    8453     8112     8113 1
    8454     8113     8119 1
    8455     8114     8115 1
    8456     8114     8118 1
    8457     8115     8116 1
    8458     8116     8117 1
    8459     8116     8120 1
    8460     8117     8118 1
    8461     8117     8123 1
    8462     8121     8122 1
    8463     8121     8129 1
    8464     8122     8123 1
    8465     8122     8130 1
    8466     8123     8124 1
    8467     8124     8125 1
    8468     8124     8128 1
    8469     8125     8126 1
    8470     8126     8127 1
    8471     8127     8128 1
    8472     8128     8129 1
    8473     8129     8233 1
    8474     8131     8132 1
    8475     8131     8147 1
    8476     8131     8148 1
    8477     8132     8133 1
    8478     8132     8139 1
    8479     8132     8149 1
    8480     8133     8134 1
    8481     8133     8150 1
    8482     8133     8151 1
    8483     8134     8135 1
    8484     8134     8152 1
    8485     8134     8153 1
    8486     8135     8136 1
    8487     8135     8154 1
    8488     8135     8155 1
    8489     8136     8137 1
    8490     8136     8156 1
    8491     8136     8157 1
    8492     8137     8138 1
    8493     8137     8158 1
    8494     8137     8159 1
    8495     8138     8160 1
    8496     8138     8161 1
    8497     8138     8162 1
    8498     8139     8140 1
    8499     8139     8163 1
    8500     8139     8164 1
    8501     8140     8141 1
    8502     8140     8165 1
    8503     8140     8166 1
    8504     8141     8142 1
    8505     8141     8167 1
    8506     8141     8168 1
    8507     8142     8143 1
    8508     8142     8169 1
    8509     8142     8170 1
    8510     8143     8144 1
    8511     8143     8171 1
    8512     8143     8172 1
    8513     8144     8145 1
    8514     8144     8173 1
    8515     8144     8174 1
    8516     8145     8146 1
    8517     8145     8175 1
    8518     8145     8176 1
    8519     8146     8177 1
    8520     8146     8178 1
    8521     8146     8179 1
    8522     8180     8181 1
    8523     8180     8196 1
    8524     8180     8197 1
    8525     8181     8182 1
    8526     8181     8188 1
    8527     8181     8198 1
    8528     8182     8183 1
    8529     8182     8199 1
    8530     8182     8200 1
    8531     8183     8184 1
    8532     8183     8201 1
    8533     8183     8202 1
    8534     8184     8185 1
    8535     8184     8203 1
    8536     8184     8204 1
    8537     8185     8186 1
    8538     8185     8205 1
    8539     8185     8206 1
    8540     8186     8187 1
    8541     8186     8207 1
    8542     8186     8208 1
    8543     8187     8209 1
    8544     8187     8210 1
    8545     8187     8211 1
    8546     8188     8189 1
    8547     8188     8212 1
    8548     8188     8213 1
    8549     8189     8190 1
    8550     8189     8214 1
    8551     8189     8215 1
    8552     8190     8191 1
    8553     8190     8216 1
    8554     8190     8217 1
    8555     8191     8192 1
    8556     8191     8218 1
    8557     8191     8219 1
    8558     8192     8193 1
    8559     8192     8220 1
    8560     8192     8221 1
    8561     8193     8194 1
    8562     8193     8222 1
    8563     8193     8223 1
    8564     8194     8195 1
    8565     8194     8224 1
    8566     8194     8225 1
    8567     8195     8226 1
    8568     8195     8227 1
    8569     8195     8228 1
    8570     8229     8230 1
    8571     8229     8236 1
    8572     8229     8252 1
    8573     8229     8301 1
    8574     8230     8231 1
    8575     8230     8234 1
    8576     8231     8232 1
    8577     8231     8235 1
    8578     8232     8233 1
    8579     8233     8234 1
    8580     8234     8240 1
    8581     8235     8236 1
    8582     8235     8239 1
    8583     8236     8237 1
    8584     8237     8238 1
    8585     8237     8241 1
    8586     8238     8239 1
    8587     8238     8244 1
    8588     8242     8243 1
    8589     8242     8250 1
    8590     8243     8244 1
    8591     8243     8251 1
    8592     8244     8245 1
    8593     8245     8246 1
    8594     8245     8249 1
    8595     8246     8247 1
    8596     8247     8248 1
    8597     8248     8249 1
    8598     8249     8250 1
    8599     8250     8354 1
    8600     8252     8253 1
    8601     8252     8268 1
    8602     8252     8269 1
    8603     8253     8254 1
    8604     8253     8260 1
    8605     8253     8270 1
    8606     8254     8255 1
    8607     8254     8271 1
    8608     8254     8272 1
    8609     8255     8256 1
    8610     8255     8273 1
    8611     8255     8274 1
    8612     8256     8257 1
    8613     8256     8275 1
    8614     8256     8276 1
    8615     8257     8258 1
    8616     8257     8277 1
    8617     8257     8278 1
    8618     8258     8259 1
    8619     8258     8279 1
    8620     8258     8280 1
    8621     8259     8281 1
    8622     8259     8282 1
    8623     8259     8283 1
    8624     8260     8261 1
    8625     8260     8284 1
    8626     8260     8285 1
    8627     8261     8262 1
    8628     8261     8286 1
    8629     8261     8287 1
    8630     8262     8263 1
    8631     8262     8288 1
    8632     8262     8289 1
    8633     8263     8264 1
    8634     8263     8290 1
    8635     8263     8291 1
    8636     8264     8265 1
    8637     8264     8292 1
    8638     8264     8293 1
    8639     8265     8266 1
    8640     8265     8294 1
    8641     8265     8295 1
    8642     8266     8267 1
    8643     8266     8296 1
    8644     8266     8297 1
    8645     8267     8298 1
    8646     8267     8299 1
    8647     8267     8300 1
    8648     8301     8302 1
    8649     8301     8317 1
    8650     8301     8318 1
    8651     8302     8303 1
    8652     8302     8309 1
    8653     8302     8319 1
    8654     8303     8304 1
    8655     8303     8320 1
    8656     8303     8321 1
    8657     8304     8305 1
    8658     8304     8322 1
    8659     8304     8323 1
    8660     8305     8306 1
    8661     8305     8324 1
    8662     8305     8325 1
    8663     8306     8307 1
    8664     8306     8326 1
    8665     8306     8327 1
    8666     8307     8308 1
    8667     8307     8328 1
    8668     8307     8329 1
    8669     8308     8330 1
    8670     8308     8331 1
    8671     8308     8332 1
    8672     8309     8310 1
    8673     8309     8333 1
    8674     8309     8334 1
    8675     8310     8311 1
    8676     8310     8335 1
    8677     8310     8336 1
    8678     8311     8312 1
    8679     8311     8337 1
    8680     8311     8338 1
    8681     8312     8313 1
    8682     8312     8339 1
    8683     8312     8340 1
    8684     8313     8314 1
    8685     8313     8341 1
    8686     8313     8342 1
    8687     8314     8315 1
    8688     8314     8343 1
    8689     8314     8344 1
    8690     8315     8316 1
    8691     8315     8345 1
    8692     8315     8346 1
    8693     8316     8347 1
    8694     8316     8348 1
    8695     8316     8349 1
    8696     8350     8351 1
    8697     8350     8357 1
    8698     8350     8373 1
    8699     8350     8422 1
    8700     8351     8352 1
    8701     8351     8355 1
    8702     8352     8353 1
    8703     8352     8356 1
    8704     8353     8354 1
    8705     8354     8355 1
    8706     8355     8361 1
    8707     8356     8357 1
    8708     8356     8360 1
    8709     8357     8358 1
    8710     8358     8359 1
    8711     8358     8362 1
    8712     8359     8360 1
    8713     8359     8365 1
    8714     8363     8364 1
    8715     8363     8371 1
    8716     8364     8365 1
    8717     8364     8372 1
    8718     8365     8366 1
    8719     8366     8367 1
    8720     8366     8370 1
    8721     8367     8368 1
    8722     8368     8369 1
    8723     8369     8370 1
    8724     8370     8371 1
    8725     8371     8475 1
    8726     8373     8374 1
    8727     8373     8389 1
    8728     8373     8390 1
    8729     8374     8375 1
    8730     8374     8381 1
    8731     8374     8391 1
    8732     8375     8376 1
    8733     8375     8392 1
    8734     8375     8393 1
    8735     8376     8377 1
    8736     8376     8394 1
    8737     8376     8395 1
    8738     8377     8378 1
    8739     8377     8396 1
    8740     8377     8397 1
    8741     8378     8379 1
    8742     8378     8398 1
    8743     8378     8399 1
    8744     8379     8380 1
    8745     8379     8400 1
    8746     8379     8401 1
    8747     8380     8402 1
    8748     8380     8403 1
    8749     8380     8404 1
    8750     8381     8382 1
    8751     8381     8405 1
    8752     8381     8406 1
    8753     8382     8383 1
    8754     8382     8407 1
    8755     8382     8408 1
    8756     8383     8384 1
    8757     8383     8409 1
    8758     8383     8410 1
    8759     8384     8385 1
    8760     8384     8411 1
    8761     8384     8412 1
    8762     8385     8386 1
    8763     8385     8413 1
    8764     8385     8414 1
    8765     8386     8387 1
    8766     8386     8415 1
    8767     8386     8416 1
    8768     8387     8388 1
    8769     8387     8417 1
    8770     8387     8418 1
    8771     8388     8419 1
    8772     8388     8420 1
    8773     8388     8421 1
    8774     8422     8423 1
    8775     8422     8438 1
    8776     8422     8439 1
    8777     8423     8424 1
    8778     8423     8430 1
    8779     8423     8440 1
    8780     8424     8425 1
    8781     8424     8441 1
    8782     8424     8442 1
    8783     8425     8426 1
    8784     8425     8443 1
    8785     8425     8444 1
    8786     8426     8427 1
    8787     8426     8445 1
    8788     8426     8446 1
    8789     8427     8428 1
    8790     8427     8447 1
    8791     8427     8448 1
    8792     8428     8429 1
    8793     8428     8449 1
    8794     8428     8450 1
    8795     8429     8451 1
    8796     8429     8452 1
    8797     8429     8453 1
    8798     8430     8431 1
    8799     8430     8454 1
    8800     8430     8455 1
    8801     8431     8432 1
    8802     8431     8456 1
    8803     8431     8457 1
    8804     8432     8433 1
    8805     8432     8458 1
    8806     8432     8459 1
    8807     8433     8434 1
    8808     8433     8460 1
    8809     8433     8461 1
    8810     8434     8435 1
    8811     8434     8462 1
    8812     8434     8463 1
    8813     8435     8436 1
    8814     8435     8464 1
    8815     8435     8465 1
    8816     8436     8437 1
    8817     8436     8466 1
    8818     8436     8467 1
    8819     8437     8468 1
    8820     8437     8469 1
    8821     8437     8470 1
    8822     8471     8472 1
    8823     8471     8478 1
    8824     8471     8494 1
    8825     8471     8543 1
    8826     8472     8473 1
    8827     8472     8476 1
    8828     8473     8474 1
    8829     8473     8477 1
    8830     8474     8475 1
    8831     8475     8476 1
    8832     8476     8482 1
    8833     8477     8478 1
    8834     8477     8481 1
    8835     8478     8479 1
    8836     8479     8480 1
    8837     8479     8483 1
    8838     8480     8481 1
    8839     8480     8486 1
    8840     8484     8485 1
    8841     8484     8492 1
    8842     8485     8486 1
    8843     8485     8493 1
    8844     8486     8487 1
    8845     8487     8488 1
    8846     8487     8491 1
    8847     8488     8489 1
    8848     8489     8490 1
    8849     8490     8491 1
    8850     8491     8492 1
    8851     8492     8596 1
    8852     8494     8495 1
    8853     8494     8510 1
    8854     8494     8511 1
    8855     8495     8496 1
    8856     8495     8502 1
    8857     8495     8512 1
    8858     8496     8497 1
    8859     8496     8513 1
    8860     8496     8514 1
    8861     8497     8498 1
    8862     8497     8515 1
    8863     8497     8516 1
    8864     8498     8499 1
    8865     8498     8517 1
    8866     8498     8518 1
    8867     8499     8500 1
    8868     8499     8519 1
    8869     8499     8520 1
    8870     8500     8501 1
    8871     8500     8521 1
    8872     8500     8522 1
    8873     8501     8523 1
    8874     8501     8524 1
    8875     8501     8525 1
    8876     8502     8503 1
    8877     8502     8526 1
    8878     8502     8527 1
    8879     8503     8504 1
    8880     8503     8528 1
    8881     8503     8529 1
    8882     8504     8505 1
    8883     8504     8530 1
    8884     8504     8531 1
    8885     8505     8506 1
    8886     8505     8532 1
    8887     8505     8533 1
    8888     8506     8507 1
    8889     8506     8534 1
    8890     8506     8535 1
    8891     8507     8508 1
    8892     8507     8536 1
    8893     8507     8537 1
    8894     8508     8509 1
    8895     8508     8538 1
    8896     8508     8539 1
    8897     8509     8540 1
    8898     8509     8541 1
    8899     8509     8542 1
    8900     8543     8544 1
    8901     8543     8559 1
    8902     8543     8560 1
    8903     8544     8545 1
    8904     8544     8551 1
    8905     8544     8561 1
    8906     8545     8546 1
    8907     8545     8562 1
    8908     8545     8563 1
    8909     8546     8547 1
    8910     8546     8564 1
    8911     8546     8565 1
    8912     8547     8548 1
    8913     8547     8566 1
    8914     8547     8567 1
    8915     8548     8549 1
    8916     8548     8568 1
    8917     8548     8569 1
    8918     8549     8550 1
    8919     8549     8570 1
    8920     8549     8571 1
    8921     8550     8572 1
    8922     8550     8573 1
    8923     8550     8574 1
    8924     8551     8552 1
    8925     8551     8575 1
    8926     8551     8576 1
    8927     8552     8553 1
    8928     8552     8577 1
    8929     8552     8578 1
    8930     8553     8554 1
    8931     8553     8579 1
    8932     8553     8580 1
    8933     8554     8555 1
    8934     8554     8581 1
    8935     8554     8582 1
    8936     8555     8556 1
    8937     8555     8583 1
    8938     8555     8584 1
    8939     8556     8557 1
    8940     8556     8585 1
    8941     8556     8586 1
    8942     8557     8558 1
    8943     8557     8587 1
    8944     8557     8588 1
    8945     8558     8589 1
    8946     8558     8590 1
    8947     8558     8591 1
    8948     8592     8593 1
    8949     8592     8599 1
    8950     8592     8615 1
    8951     8592     8664 1
    8952     8593     8594 1
    8953     8593     8597 1
    8954     8594     8595 1
    8955     8594     8598 1
    8956     8595     8596 1
    8957     8596     8597 1
    8958     8597     8603 1
    8959     8598     8599 1
    8960     8598     8602 1
    8961     8599     8600 1
    8962     8600     8601 1
    8963     8600     8604 1
    8964     8601     8602 1
    8965     8601     8607 1
    8966     8605     8606 1
    8967     8605     8613 1
    8968     8606     8607 1
    8969     8606     8614 1
    8970     8607     8608 1
    8971     8608     8609 1
    8972     8608     8612 1
    8973     8609     8610 1
    8974     8610     8611 1
    8975     8611     8612 1
    8976     8612     8613 1
    8977     8613     8717 1
    8978     8615     8616 1
    8979     8615     8631 1
    8980     8615     8632 1
    8981     8616     8617 1
    8982     8616     8623 1
    8983     8616     8633 1
    8984     8617     8618 1
    8985     8617     8634 1
    8986     8617     8635 1
    8987     8618     8619 1
    8988     8618     8636 1
    8989     8618     8637 1
    8990     8619     8620 1
    8991     8619     8638 1
    8992     8619     8639 1
    8993     8620     8621 1
    8994     8620     8640 1
    8995     8620     8641 1
    8996     8621     8622 1
    8997     8621     8642 1
    8998     8621     8643 1
    8999     8622     8644 1
    9000     8622     8645 1
    9001     8622     8646 1
    9002     8623     8624 1
    9003     8623     8647 1
    9004     8623     8648 1
    9005     8624     8625 1
    9006     8624     8649 1
    9007     8624     8650 1
    9008     8625     8626 1
    9009     8625     8651 1
    9010     8625     8652 1
    9011     8626     8627 1
    9012     8626     8653 1
    9013     8626     8654 1
    9014     8627     8628 1
    9015     8627     8655 1
    9016     8627     8656 1
    9017     8628     8629 1
    9018     8628     8657 1
    9019     8628     8658 1
    9020     8629     8630 1
    9021     8629     8659 1
    9022     8629     8660 1
    9023     8630     8661 1
    9024     8630     8662 1
    9025     8630     8663 1
    9026     8664     8665 1
    9027     8664     8680 1
    9028     8664     8681 1
    9029     8665     8666 1
    9030     8665     8672 1
    9031     8665     8682 1
    9032     8666     8667 1
    9033     8666     8683 1
    9034     8666     8684 1
    9035     8667     8668 1
    9036     8667     8685 1
    9037     8667     8686 1
    9038     8668     8669 1
    9039     8668     8687 1
    9040     8668     8688 1
    9041     8669     8670 1
    9042     8669     8689 1
    9043     8669     8690 1
    9044     8670     8671 1
    9045     8670     8691 1
    9046     8670     8692 1
    9047     8671     8693 1
    9048     8671     8694 1
    9049     8671     8695 1
    9050     8672     8673 1
    9051     8672     8696 1
    9052     8672     8697 1
    9053     8673     8674 1
    9054     8673     8698 1
    9055     8673     8699 1
    9056     8674     8675 1
    9057     8674     8700 1
    9058     8674     8701 1
    9059     8675     8676 1
    9060     8675     8702 1
    9061     8675     8703 1
    9062     8676     8677 1
    9063     8676     8704 1
    9064     8676     8705 1
    9065     8677     8678 1
    9066     8677     8706 1
    9067     8677     8707 1
    9068     8678     8679 1
    9069     8678     8708 1
    9070     8678     8709 1
    9071     8679     8710 1
    9072     8679     8711 1
    9073     8679     8712 1
    9074     8713     8714 1
    9075     8713     8720 1
    9076     8713     8736 1
    9077     8713     8785 1
    9078     8714     8715 1
    9079     8714     8718 1
    9080     8715     8716 1
    9081     8715     8719 1
    9082     8716     8717 1
    9083     8717     8718 1
    9084     8718     8724 1
    9085     8719     8720 1
    9086     8719     8723 1
    9087     8720     8721 1
    9088     8721     8722 1
    9089     8721     8725 1
    9090     8722     8723 1
    9091     8722     8728 1
    9092     8726     8727 1
    9093     8726     8734 1
    9094     8727     8728 1
    9095     8727     8735 1
    9096     8728     8729 1
    9097     8729     8730 1
    9098     8729     8733 1
    9099     8730     8731 1
    9100     8731     8732 1
    9101     8732     8733 1
    9102     8733     8734 1
    9103     8734     8838 1
    9104     8736     8737 1
    9105     8736     8752 1
    9106     8736     8753 1
    9107     8737     8738 1
    9108     8737     8744 1
    9109     8737     8754 1
    9110     8738     8739 1
    9111     8738     8755 1
    9112     8738     8756 1
    9113     8739     8740 1
    9114     8739     8757 1
    9115     8739     8758 1
    9116     8740     8741 1
    9117     8740     8759 1
    9118     8740     8760 1
    9119     8741     8742 1
    9120     8741     8761 1
    9121     8741     8762 1
    9122     8742     8743 1
    9123     8742     8763 1
    9124     8742     8764 1
    9125     8743     8765 1
    9126     8743     8766 1
    9127     8743     8767 1
    9128     8744     8745 1
    9129     8744     8768 1
    9130     8744     8769 1
    9131     8745     8746 1
    9132     8745     8770 1
    9133     8745     8771 1
    9134     8746     8747 1
    9135     8746     8772 1
    9136     8746     8773 1
    9137     8747     8748 1
    9138     8747     8774 1
    9139     8747     8775 1
    9140     8748     8749 1
    9141     8748     8776 1
    9142     8748     8777 1
    9143     8749     8750 1
    9144     8749     8778 1
    9145     8749     8779 1
    9146     8750     8751 1
    9147     8750     8780 1
    9148     8750     8781 1
    9149     8751     8782 1
    9150     8751     8783 1
    9151     8751     8784 1
    9152     8785     8786 1
    9153     8785     8801 1
    9154     8785     8802 1
    9155     8786     8787 1
    9156     8786     8793 1
    9157     8786     8803 1
    9158     8787     8788 1
    9159     8787     8804 1
    9160     8787     8805 1
    9161     8788     8789 1
    9162     8788     8806 1
    9163     8788     8807 1
    9164     8789     8790 1
    9165     8789     8808 1
    9166     8789     8809 1
    9167     8790     8791 1
    9168     8790     8810 1
    9169     8790     8811 1
    9170     8791     8792 1
    9171     8791     8812 1
    9172     8791     8813 1
    9173     8792     8814 1
    9174     8792     8815 1
    9175     8792     8816 1
    9176     8793     8794 1
    9177     8793     8817 1
    9178     8793     8818 1
    9179     8794     8795 1
    9180     8794     8819 1
    9181     8794     8820 1
    9182     8795     8796 1
    9183     8795     8821 1
    9184     8795     8822 1
    9185     8796     8797 1
    9186     8796     8823 1
    9187     8796     8824 1
    9188     8797     8798 1
    9189     8797     8825 1
    9190     8797     8826 1
    9191     8798     8799 1
    9192     8798     8827 1
    9193     8798     8828 1
    9194     8799     8800 1
    9195     8799     8829 1
    9196     8799     8830 1
    9197     8800     8831 1
    9198     8800     8832 1
    9199     8800     8833 1
    9200     8834     8835 1
    9201     8834     8841 1
    9202     8834     8857 1
    9203     8834     8906 1
    9204     8835     8836 1
    9205     8835     8839 1
    9206     8836     8837 1
    9207     8836     8840 1
    9208     8837     8838 1
    9209     8838     8839 1
    9210     8839     8845 1
    9211     8840     8841 1
    9212     8840     8844 1
    9213     8841     8842 1
    9214     8842     8843 1
    9215     8842     8846 1
    9216     8843     8844 1
    9217     8843     8849 1
    9218     8847     8848 1
    9219     8847     8855 1
    9220     8848     8849 1
    9221     8848     8856 1
    9222     8849     8850 1
    9223     8850     8851 1
    9224     8850     8854 1
    9225     8851     8852 1
    9226     8852     8853 1
    9227     8853     8854 1
    9228     8854     8855 1
    9229     8855     8959 1
    9230     8857     8858 1
    9231     8857     8873 1
    9232     8857     8874 1
    9233     8858     8859 1
    9234     8858     8865 1
    9235     8858     8875 1
    9236     8859     8860 1
    9237     8859     8876 1
    9238     8859     8877 1
    9239     8860     8861 1
    9240     8860     8878 1
    9241     8860     8879 1
    9242     8861     8862 1
    9243     8861     8880 1
    9244     8861     8881 1
    9245     8862     8863 1
    9246     8862     8882 1
    9247     8862     8883 1
    9248     8863     8864 1
    9249     8863     8884 1
    9250     8863     8885 1
    9251     8864     8886 1
    9252     8864     8887 1
    9253     8864     8888 1
    9254     8865     8866 1
    9255     8865     8889 1
    9256     8865     8890 1
    9257     8866     8867 1
    9258     8866     8891 1
    9259     8866     8892 1
    9260     8867     8868 1
    9261     8867     8893 1
    9262     8867     8894 1
    9263     8868     8869 1
    9264     8868     8895 1
    9265     8868     8896 1
    9266     8869     8870 1
    9267     8869     8897 1
    9268     8869     8898 1
    9269     8870     8871 1
    9270     8870     8899 1
    9271     8870     8900 1
    9272     8871     8872 1
    9273     8871     8901 1
    9274     8871     8902 1
    9275     8872     8903 1
    9276     8872     8904 1
    9277     8872     8905 1
    9278     8906     8907 1
    9279     8906     8922 1
    9280     8906     8923 1
    9281     8907     8908 1
    9282     8907     8914 1
    9283     8907     8924 1
    9284     8908     8909 1
    9285     8908     8925 1
    9286     8908     8926 1
    9287     8909     8910 1
    9288     8909     8927 1
    9289     8909     8928 1
    9290     8910     8911 1
    9291     8910     8929 1
    9292     8910     8930 1
    9293     8911     8912 1
    9294     8911     8931 1
    9295     8911     8932 1
    9296     8912     8913 1
    9297     8912     8933 1
    9298     8912     8934 1
    9299     8913     8935 1
    9300     8913     8936 1
    9301     8913     8937 1
    9302     8914     8915 1
    9303     8914     8938 1
    9304     8914     8939 1
    9305     8915     8916 1
    9306     8915     8940 1
    9307     8915     8941 1
    9308     8916     8917 1
    9309     8916     8942 1
    9310     8916     8943 1
    9311     8917     8918 1
    9312     8917     8944 1
    9313     8917     8945 1
    9314     8918     8919 1
    9315     8918     8946 1
    9316     8918     8947 1
    9317     8919     8920 1
    9318     8919     8948 1
    9319     8919     8949 1
    9320     8920     8921 1
    9321     8920     8950 1
    9322     8920     8951 1
    9323     8921     8952 1
    9324     8921     8953 1
    9325     8921     8954 1
    9326     8955     8956 1
    9327     8955     8962 1
    9328     8955     8978 1
    9329     8955     9027 1
    9330     8956     8957 1
    9331     8956     8960 1
    9332     8957     8958 1
    9333     8957     8961 1
    9334     8958     8959 1
    9335     8959     8960 1
    9336     8960     8966 1
    9337     8961     8962 1
    9338     8961     8965 1
    9339     8962     8963 1
    9340     8963     8964 1
    9341     8963     8967 1
    9342     8964     8965 1
    9343     8964     8970 1
    9344     8968     8969 1
    9345     8968     8976 1
    9346     8969     8970 1
    9347     8969     8977 1
    9348     8970     8971 1
    9349     8971     8972 1
    9350     8971     8975 1
    9351     8972     8973 1
    9352     8973     8974 1
    9353     8974     8975 1
    9354     8975     8976 1
    9355     8976     9080 1
    9356     8978     8979 1
    9357     8978     8994 1
    9358     8978     8995 1
    9359     8979     8980 1
    9360     8979     8986 1
    9361     8979     8996 1
    9362     8980     8981 1
    9363     8980     8997 1
    9364     8980     8998 1
    9365     8981     8982 1
    9366     8981     8999 1
    9367     8981     9000 1
    9368     8982     8983 1
    9369     8982     9001 1
    9370     8982     9002 1
    9371     8983     8984 1
    9372     8983     9003 1
    9373     8983     9004 1
    9374     8984     8985 1
    9375     8984     9005 1
    9376     8984     9006 1
    9377     8985     9007 1
    9378     8985     9008 1
    9379     8985     9009 1
    9380     8986     8987 1
    9381     8986     9010 1
    9382     8986     9011 1
    9383     8987     8988 1
    9384     8987     9012 1
    9385     8987     9013 1
    9386     8988     8989 1
    9387     8988     9014 1
    9388     8988     9015 1
    9389     8989     8990 1
    9390     8989     9016 1
    9391     8989     9017 1
    9392     8990     8991 1
    9393     8990     9018 1
    9394     8990     9019 1
    9395     8991     8992 1
    9396     8991     9020 1
    9397     8991     9021 1
    9398     8992     8993 1
    9399     8992     9022 1
    9400     8992     9023 1
    9401     8993     9024 1
    9402     8993     9025 1
    9403     8993     9026 1
    9404     9027     9028 1
    9405     9027     9043 1
    9406     9027     9044 1
    9407     9028     9029 1
    9408     9028     9035 1
    9409     9028     9045 1
    9410     9029     9030 1
    9411     9029     9046 1
    9412     9029     9047 1
    9413     9030     9031 1
    9414     9030     9048 1
    9415     9030     9049 1
    9416     9031     9032 1
    9417     9031     9050 1
    9418     9031     9051 1
    9419     9032     9033 1
    9420     9032     9052 1
    9421     9032     9053 1
    9422     9033     9034 1
    9423     9033     9054 1
    9424     9033     9055 1
    9425     9034     9056 1
    9426     9034     9057 1
    9427     9034     9058 1
    9428     9035     9036 1
    9429     9035     9059 1
    9430     9035     9060 1
    9431     9036     9037 1
    9432     9036     9061 1
    9433     9036     9062 1
    9434     9037     9038 1
    9435     9037     9063 1
    9436     9037     9064 1
    9437     9038     9039 1
    9438     9038     9065 1
    9439     9038     9066 1
    9440     9039     9040 1
    9441     9039     9067 1
    9442     9039     9068 1
    9443     9040     9041 1
    9444     9040     9069 1
    9445     9040     9070 1
    9446     9041     9042 1
    9447     9041     9071 1
    9448     9041     9072 1
    9449     9042     9073 1
    9450     9042     9074 1
    9451     9042     9075 1
    9452     9076     9077 1
    9453     9076     9083 1
    9454     9076     9099 1
    9455     9076     9148 1
    9456     9077     9078 1
    9457     9077     9081 1
    9458     9078     9079 1
    9459     9078     9082 1
    9460     9079     9080 1
    9461     9080     9081 1
    9462     9081     9087 1
    9463     9082     9083 1
    9464     9082     9086 1
    9465     9083     9084 1
    9466     9084     9085 1
    9467     9084     9088 1
    9468     9085     9086 1
    9469     9085     9091 1
    9470     9089     9090 1
    9471     9089     9097 1
    9472     9090     9091 1
    9473     9090     9098 1
    9474     9091     9092 1
    9475     9092     9093 1
    9476     9092     9096 1
    9477     9093     9094 1
    9478     9094     9095 1
    9479     9095     9096 1
    9480     9096     9097 1
    9481     9097     9201 1
    9482     9099     9100 1
    9483     9099     9115 1
    9484     9099     9116 1
    9485     9100     9101 1
    9486     9100     9107 1
    9487     9100     9117 1
    9488     9101     9102 1
    9489     9101     9118 1
    9490     9101     9119 1
    9491     9102     9103 1
    9492     9102     9120 1
    9493     9102     9121 1
    9494     9103     9104 1
    9495     9103     9122 1
    9496     9103     9123 1
    9497     9104     9105 1
    9498     9104     9124 1
    9499     9104     9125 1
    9500     9105     9106 1
    9501     9105     9126 1
    9502     9105     9127 1
    9503     9106     9128 1
    9504     9106     9129 1
    9505     9106     9130 1
    9506     9107     9108 1
    9507     9107     9131 1
    9508     9107     9132 1
    9509     9108     9109 1
    9510     9108     9133 1
    9511     9108     9134 1
    9512     9109     9110 1
    9513     9109     9135 1
    9514     9109     9136 1
    9515     9110     9111 1
    9516     9110     9137 1
    9517     9110     9138 1
    9518     9111     9112 1
    9519     9111     9139 1
    9520     9111     9140 1
    9521     9112     9113 1
    9522     9112     9141 1
    9523     9112     9142 1
    9524     9113     9114 1
    9525     9113     9143 1
    9526     9113     9144 1
    9527     9114     9145 1
    9528     9114     9146 1
    9529     9114     9147 1
    9530     9148     9149 1
    9531     9148     9164 1
    9532     9148     9165 1
    9533     9149     9150 1
    9534     9149     9156 1
    9535     9149     9166 1
    9536     9150     9151 1
    9537     9150     9167 1
    9538     9150     9168 1
    9539     9151     9152 1
    9540     9151     9169 1
    9541     9151     9170 1
    9542     9152     9153 1
    9543     9152     9171 1
    9544     9152     9172 1
    9545     9153     9154 1
    9546     9153     9173 1
    9547     9153     9174 1
    9548     9154     9155 1
    9549     9154     9175 1
    9550     9154     9176 1
    9551     9155     9177 1
    9552     9155     9178 1
    9553     9155     9179 1
    9554     9156     9157 1
    9555     9156     9180 1
    9556     9156     9181 1
    9557     9157     9158 1
    9558     9157     9182 1
    9559     9157     9183 1
    9560     9158     9159 1
    9561     9158     9184 1
    9562     9158     9185 1
    9563     9159     9160 1
    9564     9159     9186 1
    9565     9159     9187 1
    9566     9160     9161 1
    9567     9160     9188 1
    9568     9160     9189 1
    9569     9161     9162 1
    9570     9161     9190 1
    9571     9161     9191 1
    9572     9162     9163 1
    9573     9162     9192 1
    9574     9162     9193 1
    9575     9163     9194 1
    9576     9163     9195 1
    9577     9163     9196 1
    9578     9197     9198 1
    9579     9197     9204 1
    9580     9197     9220 1
    9581     9197     9269 1
    9582     9198     9199 1
    9583     9198     9202 1
    9584     9199     9200 1
    9585     9199     9203 1
    9586     9200     9201 1
    9587     9201     9202 1
    9588     9202     9208 1
    9589     9203     9204 1
    9590     9203     9207 1
    9591     9204     9205 1
    9592     9205     9206 1
    9593     9205     9209 1
    9594     9206     9207 1
    9595     9206     9212 1
    9596     9210     9211 1
    9597     9210     9218 1
    9598     9211     9212 1
    9599     9211     9219 1
    9600     9212     9213 1
    9601     9213     9214 1
    9602     9213     9217 1
    9603     9214     9215 1
    9604     9215     9216 1
    9605     9216     9217 1
    9606     9217     9218 1
    9607     9218     9322 1
    9608     9220     9221 1
    9609     9220     9236 1
    9610     9220     9237 1
    9611     9221     9222 1
    9612     9221     9228 1
    9613     9221     9238 1
    9614     9222     9223 1
    9615     9222     9239 1
    9616     9222     9240 1
    9617     9223     9224 1
    9618     9223     9241 1
    9619     9223     9242 1
    9620     9224     9225 1
    9621     9224     9243 1
    9622     9224     9244 1
    9623     9225     9226 1
    9624     9225     9245 1
    9625     9225     9246 1
    9626     9226     9227 1
    9627     9226     9247 1
    9628     9226     9248 1
    9629     9227     9249 1
    9630     9227     9250 1
    9631     9227     9251 1
    9632     9228     9229 1
    9633     9228     9252 1
    9634     9228     9253 1
    9635     9229     9230 1
    9636     9229     9254 1
    9637     9229     9255 1
    9638     9230     9231 1
    9639     9230     9256 1
    9640     9230     9257 1
    9641     9231     9232 1
    9642     9231     9258 1
    9643     9231     9259 1
    9644     9232     9233 1
    9645     9232     9260 1
    9646     9232     9261 1
    9647     9233     9234 1
    9648     9233     9262 1
    9649     9233     9263 1
    9650     9234     9235 1
    9651     9234     9264 1
    9652     9234     9265 1
    9653     9235     9266 1
    9654     9235     9267 1
    9655     9235     9268 1
    9656     9269     9270 1
    9657     9269     9285 1
    9658     9269     9286 1
    9659     9270     9271 1
    9660     9270     9277 1
    9661     9270     9287 1
    9662     9271     9272 1
    9663     9271     9288 1
    9664     9271     9289 1
    9665     9272     9273 1
    9666     9272     9290 1
    9667     9272     9291 1
    9668     9273     9274 1
    9669     9273     9292 1
    9670     9273     9293 1
    9671     9274     9275 1
    9672     9274     9294 1
    9673     9274     9295 1
    9674     9275     9276 1
    9675     9275     9296 1
    9676     9275     9297 1
    9677     9276     9298 1
    9678     9276     9299 1
    9679     9276     9300 1
    9680     9277     9278 1
    9681     9277     9301 1
    9682     9277     9302 1
    9683     9278     9279 1
    9684     9278     9303 1
    9685     9278     9304 1
    9686     9279     9280 1
    9687     9279     9305 1
    9688     9279     9306 1
    9689     9280     9281 1
    9690     9280     9307 1
    9691     9280     9308 1
    9692     9281     9282 1
    9693     9281     9309 1
    9694     9281     9310 1
    9695     9282     9283 1
    9696     9282     9311 1
    9697     9282     9312 1
    9698     9283     9284 1
    9699     9283     9313 1
    9700     9283     9314 1
    9701     9284     9315 1
    9702     9284     9316 1
    9703     9284     9317 1
    9704     9318     9319 1
    9705     9318     9325 1
    9706     9318     9341 1
    9707     9318     9390 1
    9708     9319     9320 1
    9709     9319     9323 1
    9710     9320     9321 1
    9711     9320     9324 1
    9712     9321     9322 1
    9713     9322     9323 1
    9714     9323     9329 1
    9715     9324     9325 1
    9716     9324     9328 1
    9717     9325     9326 1
    9718     9326     9327 1
    9719     9326     9330 1
    9720     9327     9328 1
    9721     9327     9333 1
    9722     9331     9332 1
    9723     9331     9339 1
    9724     9332     9333 1
    9725     9332     9340 1
    9726     9333     9334 1
    9727     9334     9335 1
    9728     9334     9338 1
    9729     9335     9336 1
    9730     9336     9337 1
    9731     9337     9338 1
    9732     9338     9339 1
    9733     9339     9443 1
    9734     9341     9342 1
    9735     9341     9357 1
    9736     9341     9358 1
    9737     9342     9343 1
    9738     9342     9349 1
    9739     9342     9359 1
    9740     9343     9344 1
    9741     9343     9360 1
    9742     9343     9361 1
    9743     9344     9345 1
    9744     9344     9362 1
    9745     9344     9363 1
    9746     9345     9346 1
    9747     9345     9364 1
    9748     9345     9365 1
    9749     9346     9347 1
    9750     9346     9366 1
    9751     9346     9367 1
    9752     9347     9348 1
    9753     9347     9368 1
    9754     9347     9369 1
    9755     9348     9370 1
    9756     9348     9371 1
    9757     9348     9372 1
    9758     9349     9350 1
    9759     9349     9373 1
    9760     9349     9374 1
    9761     9350     9351 1
    9762     9350     9375 1
    9763     9350     9376 1
    9764     9351     9352 1
    9765     9351     9377 1
    9766     9351     9378 1
    9767     9352     9353 1
    9768     9352     9379 1
    9769     9352     9380 1
    9770     9353     9354 1
    9771     9353     9381 1
    9772     9353     9382 1
    9773     9354     9355 1
    9774     9354     9383 1
    9775     9354     9384 1
    9776     9355     9356 1
    9777     9355     9385 1
    9778     9355     9386 1
    9779     9356     9387 1
    9780     9356     9388 1
    9781     9356     9389 1
    9782     9390     9391 1
    9783     9390     9406 1
    9784     9390     9407 1
    9785     9391     9392 1
    9786     9391     9398 1
    9787     9391     9408 1
    9788     9392     9393 1
    9789     9392     9409 1
    9790     9392     9410 1
    9791     9393     9394 1
    9792     9393     9411 1
    9793     9393     9412 1
    9794     9394     9395 1
    9795     9394     9413 1
    9796     9394     9414 1
    9797     9395     9396 1
    9798     9395     9415 1
    9799     9395     9416 1
    9800     9396     9397 1
    9801     9396     9417 1
    9802     9396     9418 1
    9803     9397     9419 1
    9804     9397     9420 1
    9805     9397     9421 1
    9806     9398     9399 1
    9807     9398     9422 1
    9808     9398     9423 1
    9809     9399     9400 1
    9810     9399     9424 1
    9811     9399     9425 1
    9812     9400     9401 1
    9813     9400     9426 1
    9814     9400     9427 1
    9815     9401     9402 1
    9816     9401     9428 1
    9817     9401     9429 1
    9818     9402     9403 1
    9819     9402     9430 1
    9820     9402     9431 1
    9821     9403     9404 1
    9822     9403     9432 1
    9823     9403     9433 1
    9824     9404     9405 1
    9825     9404     9434 1
    9826     9404     9435 1
    9827     9405     9436 1
    9828     9405     9437 1
    9829     9405     9438 1
    9830     9439     9440 1
    9831     9439     9446 1
    9832     9439     9462 1
    9833     9439     9511 1
    9834     9440     9441 1
    9835     9440     9444 1
    9836     9441     9442 1
    9837     9441     9445 1
    9838     9442     9443 1
    9839     9443     9444 1
    9840     9444     9450 1
    9841     9445     9446 1
    9842     9445     9449 1
    9843     9446     9447 1
    9844     9447     9448 1
    9845     9447     9451 1
    9846     9448     9449 1
    9847     9448     9454 1
    9848     9452     9453 1
    9849     9452     9460 1
    9850     9453     9454 1
    9851     9453     9461 1
    9852     9454     9455 1
    9853     9455     9456 1
    9854     9455     9459 1
    9855     9456     9457 1
    9856     9457     9458 1
    9857     9458     9459 1
    9858     9459     9460 1
    9859     9460     9564 1
    9860     9462     9463 1
    9861     9462     9478 1
    9862     9462     9479 1
    9863     9463     9464 1
    9864     9463     9470 1
    9865     9463     9480 1
    9866     9464     9465 1
    9867     9464     9481 1
    9868     9464     9482 1
    9869     9465     9466 1
    9870     9465     9483 1
    9871     9465     9484 1
    9872     9466     9467 1
    9873     9466     9485 1
    9874     9466     9486 1
    9875     9467     9468 1
    9876     9467     9487 1
    9877     9467     9488 1
    9878     9468     9469 1
    9879     9468     9489 1
    9880     9468     9490 1
    9881     9469     9491 1
    9882     9469     9492 1
    9883     9469     9493 1
    9884     9470     9471 1
    9885     9470     9494 1
    9886     9470     9495 1
    9887     9471     9472 1
    9888     9471     9496 1
    9889     9471     9497 1
    9890     9472     9473 1
    9891     9472     9498 1
    9892     9472     9499 1
    9893     9473     9474 1
    9894     9473     9500 1
    9895     9473     9501 1
    9896     9474     9475 1
    9897     9474     9502 1
    9898     9474     9503 1
    9899     9475     9476 1
    9900     9475     9504 1
    9901     9475     9505 1
    9902     9476     9477 1
    9903     9476     9506 1
    9904     9476     9507 1
    9905     9477     9508 1
    9906     9477     9509 1
    9907     9477     9510 1
    9908     9511     9512 1
    9909     9511     9527 1
    9910     9511     9528 1
    9911     9512     9513 1
    9912     9512     9519 1
    9913     9512     9529 1
    9914     9513     9514 1
    9915     9513     9530 1
    9916     9513     9531 1
    9917     9514     9515 1
    9918     9514     9532 1
    9919     9514     9533 1
    9920     9515     9516 1
    9921     9515     9534 1
    9922     9515     9535 1
    9923     9516     9517 1
    9924     9516     9536 1
    9925     9516     9537 1
    9926     9517     9518 1
    9927     9517     9538 1
    9928     9517     9539 1
    9929     9518     9540 1
    9930     9518     9541 1
    9931     9518     9542 1
    9932     9519     9520 1
    9933     9519     9543 1
    9934     9519     9544 1
    9935     9520     9521 1
    9936     9520     9545 1
    9937     9520     9546 1
    9938     9521     9522 1
    9939     9521     9547 1
    9940     9521     9548 1
    9941     9522     9523 1
    9942     9522     9549 1
    9943     9522     9550 1
    9944     9523     9524 1
    9945     9523     9551 1
    9946     9523     9552 1
    9947     9524     9525 1
    9948     9524     9553 1
    9949     9524     9554 1
    9950     9525     9526 1
    9951     9525     9555 1
    9952     9525     9556 1
    9953     9526     9557 1
    9954     9526     9558 1
    9955     9526     9559 1
    9956     9560     9561 1
    9957     9560     9567 1
    9958     9560     9583 1
    9959     9560     9632 1
    9960     9561     9562 1
    9961     9561     9565 1
    9962     9562     9563 1
    9963     9562     9566 1
    9964     9563     9564 1
    9965     9564     9565 1
    9966     9565     9571 1
    9967     9566     9567 1
    9968     9566     9570 1
    9969     9567     9568 1
    9970     9568     9569 1
    9971     9568     9572 1
    9972     9569     9570 1
    9973     9569     9575 1
    9974     9573     9574 1
    9975     9573     9581 1
    9976     9574     9575 1
    9977     9574     9582 1
    9978     9575     9576 1
    9979     9576     9577 1
    9980     9576     9580 1
    9981     9577     9578 1
    9982     9578     9579 1
    9983     9579     9580 1
    9984     9580     9581 1
    9985     9581     9685 1
    9986     9583     9584 1
    9987     9583     9599 1
    9988     9583     9600 1
    9989     9584     9585 1
    9990     9584     9591 1
    9991     9584     9601 1
    9992     9585     9586 1
    9993     9585     9602 1
    9994     9585     9603 1
    9995     9586     9587 1
    9996     9586     9604 1
    9997     9586     9605 1
    9998     9587     9588 1
    9999     9587     9606 1
   10000     9587     9607 1
   10001     9588     9589 1
   10002     9588     9608 1
   10003     9588     9609 1
   10004     9589     9590 1
   10005     9589     9610 1
   10006     9589     9611 1
   10007     9590     9612 1
   10008     9590     9613 1
   10009     9590     9614 1
   10010     9591     9592 1
   10011     9591     9615 1
   10012     9591     9616 1
   10013     9592     9593 1
   10014     9592     9617 1
   10015     9592     9618 1
   10016     9593     9594 1
   10017     9593     9619 1
   10018     9593     9620 1
   10019     9594     9595 1
   10020     9594     9621 1
   10021     9594     9622 1
   10022     9595     9596 1
   10023     9595     9623 1
   10024     9595     9624 1
   10025     9596     9597 1
   10026     9596     9625 1
   10027     9596     9626 1
   10028     9597     9598 1
   10029     9597     9627 1
   10030     9597     9628 1
   10031     9598     9629 1
   10032     9598     9630 1
   10033     9598     9631 1
   10034     9632     9633 1
   10035     9632     9648 1
   10036     9632     9649 1
   10037     9633     9634 1
   10038     9633     9640 1
   10039     9633     9650 1
   10040     9634     9635 1
   10041     9634     9651 1
   10042     9634     9652 1
   10043     9635     9636 1
   10044     9635     9653 1
   10045     9635     9654 1
   10046     9636     9637 1
   10047     9636     9655 1
   10048     9636     9656 1
   10049     9637     9638 1
   10050     9637     9657 1
   10051     9637     9658 1
   10052     9638     9639 1
   10053     9638     9659 1
   10054     9638     9660 1
   10055     9639     9661 1
   10056     9639     9662 1
   10057     9639     9663 1
   10058     9640     9641 1
   10059     9640     9664 1
   10060     9640     9665 1
   10061     9641     9642 1
   10062     9641     9666 1
   10063     9641     9667 1
   10064     9642     9643 1
   10065     9642     9668 1
   10066     9642     9669 1
   10067     9643     9644 1
   10068     9643     9670 1
   10069     9643     9671 1
   10070     9644     9645 1
   10071     9644     9672 1
   10072     9644     9673 1
   10073     9645     9646 1
   10074     9645     9674 1
   10075     9645     9675 1
   10076     9646     9647 1
   10077     9646     9676 1
   10078     9646     9677 1
   10079     9647     9678 1
   10080     9647     9679 1
   10081     9647     9680 1
   10082     9681     9682 1
   10083     9681     9688 1
   10084     9681     9704 1
   10085     9681     9753 1
   10086     9682     9683 1
   10087     9682     9686 1
   10088     9683     9684 1
   10089     9683     9687 1
   10090     9684     9685 1
   10091     9685     9686 1
   10092     9686     9692 1
   10093     9687     9688 1
   10094     9687     9691 1
   10095     9688     9689 1
   10096     9689     9690 1
   10097     9689     9693 1
   10098     9690     9691 1
   10099     9690     9696 1
   10100     9694     9695 1
   10101     9694     9702 1
   10102     9695     9696 1
   10103     9695     9703 1
   10104     9696     9697 1
   10105     9697     9698 1
   10106     9697     9701 1
   10107     9698     9699 1
   10108     9699     9700 1
   10109     9700     9701 1
   10110     9701     9702 1
   10111     9702     9806 1
   10112     9704     9705 1
   10113     9704     9720 1
   10114     9704     9721 1
   10115     9705     9706 1
   10116     9705     9712 1
   10117     9705     9722 1
   10118     9706     9707 1
   10119     9706     9723 1
   10120     9706     9724 1
   10121     9707     9708 1
   10122     9707     9725 1
   10123     9707     9726 1
   10124     9708     9709 1
   10125     9708     9727 1
   10126     9708     9728 1
   10127     9709     9710 1
   10128     9709     9729 1
   10129     9709     9730 1
   10130     9710     9711 1
   10131     9710     9731 1
   10132     9710     9732 1
   10133     9711     9733 1
   10134     9711     9734 1
   10135     9711     9735 1
   10136     9712     9713 1
   10137     9712     9736 1
   10138     9712     9737 1
   10139     9713     9714 1
   10140     9713     9738 1
   10141     9713     9739 1
   10142     9714     9715 1
   10143     9714     9740 1
   10144     9714     9741 1
   10145     9715     9716 1
   10146     9715     9742 1
   10147     9715     9743 1
   10148     9716     9717 1
   10149     9716     9744 1
   10150     9716     9745 1
   10151     9717     9718 1
   10152     9717     9746 1
   10153     9717     9747 1
   10154     9718     9719 1
   10155     9718     9748 1
   10156     9718     9749 1
   10157     9719     9750 1
   10158     9719     9751 1
   10159     9719     9752 1
   10160     9753     9754 1
   10161     9753     9769 1
   10162     9753     9770 1
   10163     9754     9755 1
   10164     9754     9761 1
   10165     9754     9771 1
   10166     9755     9756 1
   10167     9755     9772 1
   10168     9755     9773 1
   10169     9756     9757 1
   10170     9756     9774 1
   10171     9756     9775 1
   10172     9757     9758 1
   10173     9757     9776 1
   10174     9757     9777 1
   10175     9758     9759 1
   10176     9758     9778 1
   10177     9758     9779 1
   10178     9759     9760 1
   10179     9759     9780 1
   10180     9759     9781 1
   10181     9760     9782 1
   10182     9760     9783 1
   10183     9760     9784 1
   10184     9761     9762 1
   10185     9761     9785 1
   10186     9761     9786 1
   10187     9762     9763 1
   10188     9762     9787 1
   10189     9762     9788 1
   10190     9763     9764 1
   10191     9763     9789 1
   10192     9763     9790 1
   10193     9764     9765 1
   10194     9764     9791 1
   10195     9764     9792 1
   10196     9765     9766 1
   10197     9765     9793 1
   10198     9765     9794 1
   10199     9766     9767 1
   10200     9766     9795 1
   10201     9766     9796 1
   10202     9767     9768 1
   10203     9767     9797 1
   10204     9767     9798 1
   10205     9768     9799 1
   10206     9768     9800 1
   10207     9768     9801 1
   10208     9802     9803 1
   10209     9802     9809 1
   10210     9802     9825 1
   10211     9802     9874 1
   10212     9803     9804 1
   10213     9803     9807 1
   10214     9804     9805 1
   10215     9804     9808 1
   10216     9805     9806 1
   10217     9806     9807 1
   10218     9807     9813 1
   10219     9808     9809 1
   10220     9808     9812 1
   10221     9809     9810 1
   10222     9810     9811 1
   10223     9810     9814 1
   10224     9811     9812 1
   10225     9811     9817 1
   10226     9815     9816 1
   10227     9815     9823 1
   10228     9816     9817 1
   10229     9816     9824 1
   10230     9817     9818 1
   10231     9818     9819 1
   10232     9818     9822 1
   10233     9819     9820 1
   10234     9820     9821 1
   10235     9821     9822 1
   10236     9822     9823 1
   10237     9823     9927 1
   10238     9825     9826 1
   10239     9825     9841 1
   10240     9825     9842 1
   10241     9826     9827 1
   10242     9826     9833 1
   10243     9826     9843 1
   10244     9827     9828 1
   10245     9827     9844 1
   10246     9827     9845 1
   10247     9828     9829 1
   10248     9828     9846 1
   10249     9828     9847 1
   10250     9829     9830 1
   10251     9829     9848 1
   10252     9829     9849 1
   10253     9830     9831 1
   10254     9830     9850 1
   10255     9830     9851 1
   10256     9831     9832 1
   10257     9831     9852 1
   10258     9831     9853 1
   10259     9832     9854 1
   10260     9832     9855 1
   10261     9832     9856 1
   10262     9833     9834 1
   10263     9833     9857 1
   10264     9833     9858 1
   10265     9834     9835 1
   10266     9834     9859 1
   10267     9834     9860 1
   10268     9835     9836 1
   10269     9835     9861 1
   10270     9835     9862 1
   10271     9836     9837 1
   10272     9836     9863 1
   10273     9836     9864 1
   10274     9837     9838 1
   10275     9837     9865 1
   10276     9837     9866 1
   10277     9838     9839 1
   10278     9838     9867 1
   10279     9838     9868 1
   10280     9839     9840 1
   10281     9839     9869 1
   10282     9839     9870 1
   10283     9840     9871 1
   10284     9840     9872 1
   10285     9840     9873 1
   10286     9874     9875 1
   10287     9874     9890 1
   10288     9874     9891 1
   10289     9875     9876 1
   10290     9875     9882 1
   10291     9875     9892 1
   10292     9876     9877 1
   10293     9876     9893 1
   10294     9876     9894 1
   10295     9877     9878 1
   10296     9877     9895 1
   10297     9877     9896 1
   10298     9878     9879 1
   10299     9878     9897 1
   10300     9878     9898 1
   10301     9879     9880 1
   10302     9879     9899 1
   10303     9879     9900 1
   10304     9880     9881 1
   10305     9880     9901 1
   10306     9880     9902 1
   10307     9881     9903 1
   10308     9881     9904 1
   10309     9881     9905 1
   10310     9882     9883 1
   10311     9882     9906 1
   10312     9882     9907 1
   10313     9883     9884 1
   10314     9883     9908 1
   10315     9883     9909 1
   10316     9884     9885 1
   10317     9884     9910 1
   10318     9884     9911 1
   10319     9885     9886 1
   10320     9885     9912 1
   10321     9885     9913 1
   10322     9886     9887 1
   10323     9886     9914 1
   10324     9886     9915 1
   10325     9887     9888 1
   10326     9887     9916 1
   10327     9887     9917 1
   10328     9888     9889 1
   10329     9888     9918 1
   10330     9888     9919 1
   10331     9889     9920 1
   10332     9889     9921 1
   10333     9889     9922 1
   10334     9923     9924 1
   10335     9923     9930 1
   10336     9923     9946 1
   10337     9923     9995 1
   10338     9924     9925 1
   10339     9924     9928 1
   10340     9925     9926 1
   10341     9925     9929 1
   10342     9926     9927 1
   10343     9927     9928 1
   10344     9928     9934 1
   10345     9929     9930 1
   10346     9929     9933 1
   10347     9930     9931 1
   10348     9931     9932 1
   10349     9931     9935 1
   10350     9932     9933 1
   10351     9932     9938 1
   10352     9936     9937 1
   10353     9936     9944 1
   10354     9937     9938 1
   10355     9937     9945 1
   10356     9938     9939 1
   10357     9939     9940 1
   10358     9939     9943 1
   10359     9940     9941 1
   10360     9941     9942 1
   10361     9942     9943 1
   10362     9943     9944 1
   10363     9944    10048 1
   10364     9946     9947 1
   10365     9946     9962 1
   10366     9946     9963 1
   10367     9947     9948 1
   10368     9947     9954 1
   10369     9947     9964 1
   10370     9948     9949 1
   10371     9948     9965 1
   10372     9948     9966 1
   10373     9949     9950 1
   10374     9949     9967 1
   10375     9949     9968 1
   10376     9950     9951 1
   10377     9950     9969 1
   10378     9950     9970 1
   10379     9951     9952 1
   10380     9951     9971 1
   10381     9951     9972 1
   10382     9952     9953 1
   10383     9952     9973 1
   10384     9952     9974 1
   10385     9953     9975 1
   10386     9953     9976 1
   10387     9953     9977 1
   10388     9954     9955 1
   10389     9954     9978 1
   10390     9954     9979 1
   10391     9955     9956 1
   10392     9955     9980 1
   10393     9955     9981 1
   10394     9956     9957 1
   10395     9956     9982 1
   10396     9956     9983 1
   10397     9957     9958 1
   10398     9957     9984 1
   10399     9957     9985 1
   10400     9958     9959 1
   10401     9958     9986 1
   10402     9958     9987 1
   10403     9959     9960 1
   10404     9959     9988 1
   10405     9959     9989 1
   10406     9960     9961 1
   10407     9960     9990 1
   10408     9960     9991 1
   10409     9961     9992 1
   10410     9961     9993 1
   10411     9961     9994 1
   10412     9995     9996 1
   10413     9995    10011 1
   10414     9995    10012 1
   10415     9996     9997 1
   10416     9996    10003 1
   10417     9996    10013 1
   10418     9997     9998 1
   10419     9997    10014 1
   10420     9997    10015 1
   10421     9998     9999 1
   10422     9998    10016 1
   10423     9998    10017 1
   10424     9999    10000 1
   10425     9999    10018 1
   10426     9999    10019 1
   10427    10000    10001 1
   10428    10000    10020 1
   10429    10000    10021 1
   10430    10001    10002 1
   10431    10001    10022 1
   10432    10001    10023 1
   10433    10002    10024 1
   10434    10002    10025 1
   10435    10002    10026 1
   10436    10003    10004 1
   10437    10003    10027 1
   10438    10003    10028 1
   10439    10004    10005 1
   10440    10004    10029 1
   10441    10004    10030 1
   10442    10005    10006 1
   10443    10005    10031 1
   10444    10005    10032 1
   10445    10006    10007 1
   10446    10006    10033 1
   10447    10006    10034 1
   10448    10007    10008 1
   10449    10007    10035 1
   10450    10007    10036 1
   10451    10008    10009 1
   10452    10008    10037 1
   10453    10008    10038 1
   10454    10009    10010 1
   10455    10009    10039 1
   10456    10009    10040 1
   10457    10010    10041 1
   10458    10010    10042 1
   10459    10010    10043 1
   10460    10044    10045 1
   10461    10044    10051 1
   10462    10044    10067 1
   10463    10044    10116 1
   10464    10045    10046 1
   10465    10045    10049 1
   10466    10046    10047 1
   10467    10046    10050 1
   10468    10047    10048 1
   10469    10048    10049 1
   10470    10049    10055 1
   10471    10050    10051 1
   10472    10050    10054 1
   10473    10051    10052 1
   10474    10052    10053 1
   10475    10052    10056 1
   10476    10053    10054 1
   10477    10053    10059 1
   10478    10057    10058 1
   10479    10057    10065 1
   10480    10058    10059 1
   10481    10058    10066 1
   10482    10059    10060 1
   10483    10060    10061 1
   10484    10060    10064 1
   10485    10061    10062 1
   10486    10062    10063 1
   10487    10063    10064 1
   10488    10064    10065 1
   10489    10065    10169 1
   10490    10067    10068 1
   10491    10067    10083 1
   10492    10067    10084 1
   10493    10068    10069 1
   10494    10068    10075 1
   10495    10068    10085 1
   10496    10069    10070 1
   10497    10069    10086 1
   10498    10069    10087 1
   10499    10070    10071 1
   10500    10070    10088 1
   10501    10070    10089 1
   10502    10071    10072 1
   10503    10071    10090 1
   10504    10071    10091 1
   10505    10072    10073 1
   10506    10072    10092 1
   10507    10072    10093 1
   10508    10073    10074 1
   10509    10073    10094 1
   10510    10073    10095 1
   10511    10074    10096 1
   10512    10074    10097 1
   10513    10074    10098 1
   10514    10075    10076 1
   10515    10075    10099 1
   10516    10075    10100 1
   10517    10076    10077 1
   10518    10076    10101 1
   10519    10076    10102 1
   10520    10077    10078 1
   10521    10077    10103 1
   10522    10077    10104 1
   10523    10078    10079 1
   10524    10078    10105 1
   10525    10078    10106 1
   10526    10079    10080 1
   10527    10079    10107 1
   10528    10079    10108 1
   10529    10080    10081 1
   10530    10080    10109 1
   10531    10080    10110 1
   10532    10081    10082 1
   10533    10081    10111 1
   10534    10081    10112 1
   10535    10082    10113 1
   10536    10082    10114 1
   10537    10082    10115 1
   10538    10116    10117 1
   10539    10116    10132 1
   10540    10116    10133 1
   10541    10117    10118 1
   10542    10117    10124 1
   10543    10117    10134 1
   10544    10118    10119 1
   10545    10118    10135 1
   10546    10118    10136 1
   10547    10119    10120 1
   10548    10119    10137 1
   10549    10119    10138 1
   10550    10120    10121 1
   10551    10120    10139 1
   10552    10120    10140 1
   10553    10121    10122 1
   10554    10121    10141 1
   10555    10121    10142 1
   10556    10122    10123 1
   10557    10122    10143 1
   10558    10122    10144 1
   10559    10123    10145 1
   10560    10123    10146 1
   10561    10123    10147 1
   10562    10124    10125 1
   10563    10124    10148 1
   10564    10124    10149 1
   10565    10125    10126 1
   10566    10125    10150 1
   10567    10125    10151 1
   10568    10126    10127 1
   10569    10126    10152 1
   10570    10126    10153 1
   10571    10127    10128 1
   10572    10127    10154 1
   10573    10127    10155 1
   10574    10128    10129 1
   10575    10128    10156 1
   10576    10128    10157 1
   10577    10129    10130 1
   10578    10129    10158 1
   10579    10129    10159 1
   10580    10130    10131 1
   10581    10130    10160 1
   10582    10130    10161 1
   10583    10131    10162 1
   10584    10131    10163 1
   10585    10131    10164 1
   10586    10165    10166 1
   10587    10165    10172 1
   10588    10165    10188 1
   10589    10165    10237 1
   10590    10166    10167 1
   10591    10166    10170 1
   10592    10167    10168 1
   10593    10167    10171 1
   10594    10168    10169 1
   10595    10169    10170 1
   10596    10170    10176 1
   10597    10171    10172 1
   10598    10171    10175 1
   10599    10172    10173 1
   10600    10173    10174 1
   10601    10173    10177 1
   10602    10174    10175 1
   10603    10174    10180 1
   10604    10178    10179 1
   10605    10178    10186 1
   10606    10179    10180 1
   10607    10179    10187 1
   10608    10180    10181 1
   10609    10181    10182 1
   10610    10181    10185 1
   10611    10182    10183 1
   10612    10183    10184 1
   10613    10184    10185 1
   10614    10185    10186 1
   10615    10186    10290 1
   10616    10188    10189 1
   10617    10188    10204 1
   10618    10188    10205 1
   10619    10189    10190 1
   10620    10189    10196 1
   10621    10189    10206 1
   10622    10190    10191 1
   10623    10190    10207 1
   10624    10190    10208 1
   10625    10191    10192 1
   10626    10191    10209 1
   10627    10191    10210 1
   10628    10192    10193 1
   10629    10192    10211 1
   10630    10192    10212 1
   10631    10193    10194 1
   10632    10193    10213 1
   10633    10193    10214 1
   10634    10194    10195 1
   10635    10194    10215 1
   10636    10194    10216 1
   10637    10195    10217 1
   10638    10195    10218 1
   10639    10195    10219 1
   10640    10196    10197 1
   10641    10196    10220 1
   10642    10196    10221 1
   10643    10197    10198 1
   10644    10197    10222 1
   10645    10197    10223 1
   10646    10198    10199 1
   10647    10198    10224 1
   10648    10198    10225 1
   10649    10199    10200 1
   10650    10199    10226 1
   10651    10199    10227 1
   10652    10200    10201 1
   10653    10200    10228 1
   10654    10200    10229 1
   10655    10201    10202 1
   10656    10201    10230 1
   10657    10201    10231 1
   10658    10202    10203 1
   10659    10202    10232 1
   10660    10202    10233 1
   10661    10203    10234 1
   10662    10203    10235 1
   10663    10203    10236 1
   10664    10237    10238 1
   10665    10237    10253 1
   10666    10237    10254 1
   10667    10238    10239 1
   10668    10238    10245 1
   10669    10238    10255 1
   10670    10239    10240 1
   10671    10239    10256 1
   10672    10239    10257 1
   10673    10240    10241 1
   10674    10240    10258 1
   10675    10240    10259 1
   10676    10241    10242 1
   10677    10241    10260 1
   10678    10241    10261 1
   10679    10242    10243 1
   10680    10242    10262 1
   10681    10242    10263 1
   10682    10243    10244 1
   10683    10243    10264 1
   10684    10243    10265 1
   10685    10244    10266 1
   10686    10244    10267 1
   10687    10244    10268 1
   10688    10245    10246 1
   10689    10245    10269 1
   10690    10245    10270 1
   10691    10246    10247 1
   10692    10246    10271 1
   10693    10246    10272 1
   10694    10247    10248 1
   10695    10247    10273 1
   10696    10247    10274 1
   10697    10248    10249 1
   10698    10248    10275 1
   10699    10248    10276 1
   10700    10249    10250 1
   10701    10249    10277 1
   10702    10249    10278 1
   10703    10250    10251 1
   10704    10250    10279 1
   10705    10250    10280 1
   10706    10251    10252 1
   10707    10251    10281 1
   10708    10251    10282 1
   10709    10252    10283 1
   10710    10252    10284 1
   10711    10252    10285 1
   10712    10286    10287 1
   10713    10286    10293 1
   10714    10286    10309 1
   10715    10286    10358 1
   10716    10287    10288 1
   10717    10287    10291 1
   10718    10288    10289 1
   10719    10288    10292 1
   10720    10289    10290 1
   10721    10290    10291 1
   10722    10291    10297 1
   10723    10292    10293 1
   10724    10292    10296 1
   10725    10293    10294 1
   10726    10294    10295 1
   10727    10294    10298 1
   10728    10295    10296 1
   10729    10295    10301 1
   10730    10299    10300 1
   10731    10299    10307 1
   10732    10300    10301 1
   10733    10300    10308 1
   10734    10301    10302 1
   10735    10302    10303 1
   10736    10302    10306 1
   10737    10303    10304 1
   10738    10304    10305 1
   10739    10305    10306 1
   10740    10306    10307 1
   10741    10307    10411 1
   10742    10309    10310 1
   10743    10309    10325 1
   10744    10309    10326 1
   10745    10310    10311 1
   10746    10310    10317 1
   10747    10310    10327 1
   10748    10311    10312 1
   10749    10311    10328 1
   10750    10311    10329 1
   10751    10312    10313 1
   10752    10312    10330 1
   10753    10312    10331 1
   10754    10313    10314 1
   10755    10313    10332 1
   10756    10313    10333 1
   10757    10314    10315 1
   10758    10314    10334 1
   10759    10314    10335 1
   10760    10315    10316 1
   10761    10315    10336 1
   10762    10315    10337 1
   10763    10316    10338 1
   10764    10316    10339 1
   10765    10316    10340 1
   10766    10317    10318 1
   10767    10317    10341 1
   10768    10317    10342 1
   10769    10318    10319 1
   10770    10318    10343 1
   10771    10318    10344 1
   10772    10319    10320 1
   10773    10319    10345 1
   10774    10319    10346 1
   10775    10320    10321 1
   10776    10320    10347 1
   10777    10320    10348 1
   10778    10321    10322 1
   10779    10321    10349 1
   10780    10321    10350 1
   10781    10322    10323 1
   10782    10322    10351 1
   10783    10322    10352 1
   10784    10323    10324 1
   10785    10323    10353 1
   10786    10323    10354 1
   10787    10324    10355 1
   10788    10324    10356 1
   10789    10324    10357 1
   10790    10358    10359 1
   10791    10358    10374 1
   10792    10358    10375 1
   10793    10359    10360 1
   10794    10359    10366 1
   10795    10359    10376 1
   10796    10360    10361 1
   10797    10360    10377 1
   10798    10360    10378 1
   10799    10361    10362 1
   10800    10361    10379 1
   10801    10361    10380 1
   10802    10362    10363 1
   10803    10362    10381 1
   10804    10362    10382 1
   10805    10363    10364 1
   10806    10363    10383 1
   10807    10363    10384 1
   10808    10364    10365 1
   10809    10364    10385 1
   10810    10364    10386 1
   10811    10365    10387 1
   10812    10365    10388 1
   10813    10365    10389 1
   10814    10366    10367 1
   10815    10366    10390 1
   10816    10366    10391 1
   10817    10367    10368 1
   10818    10367    10392 1
   10819    10367    10393 1
   10820    10368    10369 1
   10821    10368    10394 1
   10822    10368    10395 1
   10823    10369    10370 1
   10824    10369    10396 1
   10825    10369    10397 1
   10826    10370    10371 1
   10827    10370    10398 1
   10828    10370    10399 1
   10829    10371    10372 1
   10830    10371    10400 1
   10831    10371    10401 1
   10832    10372    10373 1
   10833    10372    10402 1
   10834    10372    10403 1
   10835    10373    10404 1
   10836    10373    10405 1
   10837    10373    10406 1
   10838    10407    10408 1
   10839    10407    10414 1
   10840    10407    10430 1
   10841    10407    10479 1
   10842    10408    10409 1
   10843    10408    10412 1
   10844    10409    10410 1
   10845    10409    10413 1
   10846    10410    10411 1
   10847    10411    10412 1
   10848    10412    10418 1
   10849    10413    10414 1
   10850    10413    10417 1
   10851    10414    10415 1
   10852    10415    10416 1
   10853    10415    10419 1
   10854    10416    10417 1
   10855    10416    10422 1
   10856    10420    10421 1
   10857    10420    10428 1
   10858    10421    10422 1
   10859    10421    10429 1
   10860    10422    10423 1
   10861    10423    10424 1
   10862    10423    10427 1
   10863    10424    10425 1
   10864    10425    10426 1
   10865    10426    10427 1
   10866    10427    10428 1
   10867    10428    10532 1
   10868    10430    10431 1
   10869    10430    10446 1
   10870    10430    10447 1
   10871    10431    10432 1
   10872    10431    10438 1
   10873    10431    10448 1
   10874    10432    10433 1
   10875    10432    10449 1
   10876    10432    10450 1
   10877    10433    10434 1
   10878    10433    10451 1
   10879    10433    10452 1
   10880    10434    10435 1
   10881    10434    10453 1
   10882    10434    10454 1
   10883    10435    10436 1
   10884    10435    10455 1
   10885    10435    10456 1
   10886    10436    10437 1
   10887    10436    10457 1
   10888    10436    10458 1
   10889    10437    10459 1
   10890    10437    10460 1
   10891    10437    10461 1
   10892    10438    10439 1
   10893    10438    10462 1
   10894    10438    10463 1
   10895    10439    10440 1
   10896    10439    10464 1
   10897    10439    10465 1
   10898    10440    10441 1
   10899    10440    10466 1
   10900    10440    10467 1
   10901    10441    10442 1
   10902    10441    10468 1
   10903    10441    10469 1
   10904    10442    10443 1
   10905    10442    10470 1
   10906    10442    10471 1
   10907    10443    10444 1
   10908    10443    10472 1
   10909    10443    10473 1
   10910    10444    10445 1
   10911    10444    10474 1
   10912    10444    10475 1
   10913    10445    10476 1
   10914    10445    10477 1
   10915    10445    10478 1
   10916    10479    10480 1
   10917    10479    10495 1
   10918    10479    10496 1
   10919    10480    10481 1
   10920    10480    10487 1
   10921    10480    10497 1
   10922    10481    10482 1
   10923    10481    10498 1
   10924    10481    10499 1
   10925    10482    10483 1
   10926    10482    10500 1
   10927    10482    10501 1
   10928    10483    10484 1
   10929    10483    10502 1
   10930    10483    10503 1
   10931    10484    10485 1
   10932    10484    10504 1
   10933    10484    10505 1
   10934    10485    10486 1
   10935    10485    10506 1
   10936    10485    10507 1
   10937    10486    10508 1
   10938    10486    10509 1
   10939    10486    10510 1
   10940    10487    10488 1
   10941    10487    10511 1
   10942    10487    10512 1
   10943    10488    10489 1
   10944    10488    10513 1
   10945    10488    10514 1
   10946    10489    10490 1
   10947    10489    10515 1
   10948    10489    10516 1
   10949    10490    10491 1
   10950    10490    10517 1
   10951    10490    10518 1
   10952    10491    10492 1
   10953    10491    10519 1
   10954    10491    10520 1
   10955    10492    10493 1
   10956    10492    10521 1
   10957    10492    10522 1
   10958    10493    10494 1
   10959    10493    10523 1
   10960    10493    10524 1
   10961    10494    10525 1
   10962    10494    10526 1
   10963    10494    10527 1
   10964    10528    10529 1
   10965    10528    10535 1
   10966    10528    10551 1
   10967    10528    10600 1
   10968    10529    10530 1
   10969    10529    10533 1
   10970    10530    10531 1
   10971    10530    10534 1
   10972    10531    10532 1
   10973    10532    10533 1
   10974    10533    10539 1
   10975    10534    10535 1
   10976    10534    10538 1
   10977    10535    10536 1
   10978    10536    10537 1
   10979    10536    10540 1
   10980    10537    10538 1
   10981    10537    10543 1
   10982    10541    10542 1
   10983    10541    10549 1
   10984    10542    10543 1
   10985    10542    10550 1
   10986    10543    10544 1
   10987    10544    10545 1
   10988    10544    10548 1
   10989    10545    10546 1
   10990    10546    10547 1
   10991    10547    10548 1
   10992    10548    10549 1
   10993    10549    10653 1
   10994    10551    10552 1
   10995    10551    10567 1
   10996    10551    10568 1
   10997    10552    10553 1
   10998    10552    10559 1
   10999    10552    10569 1
   11000    10553    10554 1
   11001    10553    10570 1
   11002    10553    10571 1
   11003    10554    10555 1
   11004    10554    10572 1
   11005    10554    10573 1
   11006    10555    10556 1
   11007    10555    10574 1
   11008    10555    10575 1
   11009    10556    10557 1
   11010    10556    10576 1
   11011    10556    10577 1
   11012    10557    10558 1
   11013    10557    10578 1
   11014    10557    10579 1
   11015    10558    10580 1
   11016    10558    10581 1
   11017    10558    10582 1
   11018    10559    10560 1
   11019    10559    10583 1
   11020    10559    10584 1
   11021    10560    10561 1
   11022    10560    10585 1
   11023    10560    10586 1
   11024    10561    10562 1
   11025    10561    10587 1
   11026    10561    10588 1
   11027    10562    10563 1
   11028    10562    10589 1
   11029    10562    10590 1
   11030    10563    10564 1
   11031    10563    10591 1
   11032    10563    10592 1
   11033    10564    10565 1
   11034    10564    10593 1
   11035    10564    10594 1
   11036    10565    10566 1
   11037    10565    10595 1
   11038    10565    10596 1
   11039    10566    10597 1
   11040    10566    10598 1
   11041    10566    10599 1
   11042    10600    10601 1
   11043    10600    10616 1
   11044    10600    10617 1
   11045    10601    10602 1
   11046    10601    10608 1
   11047    10601    10618 1
   11048    10602    10603 1
   11049    10602    10619 1
   11050    10602    10620 1
   11051    10603    10604 1
   11052    10603    10621 1
   11053    10603    10622 1
   11054    10604    10605 1
   11055    10604    10623 1
   11056    10604    10624 1
   11057    10605    10606 1
   11058    10605    10625 1
   11059    10605    10626 1
   11060    10606    10607 1
   11061    10606    10627 1
   11062    10606    10628 1
   11063    10607    10629 1
   11064    10607    10630 1
   11065    10607    10631 1
   11066    10608    10609 1
   11067    10608    10632 1
   11068    10608    10633 1
   11069    10609    10610 1
   11070    10609    10634 1
   11071    10609    10635 1
   11072    10610    10611 1
   11073    10610    10636 1
   11074    10610    10637 1
   11075    10611    10612 1
   11076    10611    10638 1
   11077    10611    10639 1
   11078    10612    10613 1
   11079    10612    10640 1
   11080    10612    10641 1
   11081    10613    10614 1
   11082    10613    10642 1
   11083    10613    10643 1
   11084    10614    10615 1
   11085    10614    10644 1
   11086    10614    10645 1
   11087    10615    10646 1
   11088    10615    10647 1
   11089    10615    10648 1
   11090    10649    10650 1
   11091    10649    10656 1
   11092    10649    10672 1
   11093    10649    10721 1
   11094    10650    10651 1
   11095    10650    10654 1
   11096    10651    10652 1
   11097    10651    10655 1
   11098    10652    10653 1
   11099    10653    10654 1
   11100    10654    10660 1
   11101    10655    10656 1
   11102    10655    10659 1
   11103    10656    10657 1
   11104    10657    10658 1
   11105    10657    10661 1
   11106    10658    10659 1
   11107    10658    10664 1
   11108    10662    10663 1
   11109    10662    10670 1
   11110    10663    10664 1
   11111    10663    10671 1
   11112    10664    10665 1
   11113    10665    10666 1
   11114    10665    10669 1
   11115    10666    10667 1
   11116    10667    10668 1
   11117    10668    10669 1
   11118    10669    10670 1
   11119    10670    10774 1
   11120    10672    10673 1
   11121    10672    10688 1
   11122    10672    10689 1
   11123    10673    10674 1
   11124    10673    10680 1
   11125    10673    10690 1
   11126    10674    10675 1
   11127    10674    10691 1
   11128    10674    10692 1
   11129    10675    10676 1
   11130    10675    10693 1
   11131    10675    10694 1
   11132    10676    10677 1
   11133    10676    10695 1
   11134    10676    10696 1
   11135    10677    10678 1
   11136    10677    10697 1
   11137    10677    10698 1
   11138    10678    10679 1
   11139    10678    10699 1
   11140    10678    10700 1
   11141    10679    10701 1
   11142    10679    10702 1
   11143    10679    10703 1
   11144    10680    10681 1
   11145    10680    10704 1
   11146    10680    10705 1
   11147    10681    10682 1
   11148    10681    10706 1
   11149    10681    10707 1
   11150    10682    10683 1
   11151    10682    10708 1
   11152    10682    10709 1
   11153    10683    10684 1
   11154    10683    10710 1
   11155    10683    10711 1
   11156    10684    10685 1
   11157    10684    10712 1
   11158    10684    10713 1
   11159    10685    10686 1
   11160    10685    10714 1
   11161    10685    10715 1
   11162    10686    10687 1
   11163    10686    10716 1
   11164    10686    10717 1
   11165    10687    10718 1
   11166    10687    10719 1
   11167    10687    10720 1
   11168    10721    10722 1
   11169    10721    10737 1
   11170    10721    10738 1
   11171    10722    10723 1
   11172    10722    10729 1
   11173    10722    10739 1
   11174    10723    10724 1
   11175    10723    10740 1
   11176    10723    10741 1
   11177    10724    10725 1
   11178    10724    10742 1
   11179    10724    10743 1
   11180    10725    10726 1
   11181    10725    10744 1
   11182    10725    10745 1
   11183    10726    10727 1
   11184    10726    10746 1
   11185    10726    10747 1
   11186    10727    10728 1
   11187    10727    10748 1
   11188    10727    10749 1
   11189    10728    10750 1
   11190    10728    10751 1
   11191    10728    10752 1
   11192    10729    10730 1
   11193    10729    10753 1
   11194    10729    10754 1
   11195    10730    10731 1
   11196    10730    10755 1
   11197    10730    10756 1
   11198    10731    10732 1
   11199    10731    10757 1
   11200    10731    10758 1
   11201    10732    10733 1
   11202    10732    10759 1
   11203    10732    10760 1
   11204    10733    10734 1
   11205    10733    10761 1
   11206    10733    10762 1
   11207    10734    10735 1
   11208    10734    10763 1
   11209    10734    10764 1
   11210    10735    10736 1
   11211    10735    10765 1
   11212    10735    10766 1
   11213    10736    10767 1
   11214    10736    10768 1
   11215    10736    10769 1
   11216    10770    10771 1
   11217    10770    10777 1
   11218    10770    10793 1
   11219    10770    10842 1
   11220    10771    10772 1
   11221    10771    10775 1
   11222    10772    10773 1
   11223    10772    10776 1
   11224    10773    10774 1
   11225    10774    10775 1
   11226    10775    10781 1
   11227    10776    10777 1
   11228    10776    10780 1
   11229    10777    10778 1
   11230    10778    10779 1
   11231    10778    10782 1
   11232    10779    10780 1
   11233    10779    10785 1
   11234    10783    10784 1
   11235    10783    10791 1
   11236    10784    10785 1
   11237    10784    10792 1
   11238    10785    10786 1
   11239    10786    10787 1
   11240    10786    10790 1
   11241    10787    10788 1
   11242    10788    10789 1
   11243    10789    10790 1
   11244    10790    10791 1
   11245    10791    10895 1
   11246    10793    10794 1
   11247    10793    10809 1
   11248    10793    10810 1
   11249    10794    10795 1
   11250    10794    10801 1
   11251    10794    10811 1
   11252    10795    10796 1
   11253    10795    10812 1
   11254    10795    10813 1
   11255    10796    10797 1
   11256    10796    10814 1
   11257    10796    10815 1
   11258    10797    10798 1
   11259    10797    10816 1
   11260    10797    10817 1
   11261    10798    10799 1
   11262    10798    10818 1
   11263    10798    10819 1
   11264    10799    10800 1
   11265    10799    10820 1
   11266    10799    10821 1
   11267    10800    10822 1
   11268    10800    10823 1
   11269    10800    10824 1
   11270    10801    10802 1
   11271    10801    10825 1
   11272    10801    10826 1
   11273    10802    10803 1
   11274    10802    10827 1
   11275    10802    10828 1
   11276    10803    10804 1
   11277    10803    10829 1
   11278    10803    10830 1
   11279    10804    10805 1
   11280    10804    10831 1
   11281    10804    10832 1
   11282    10805    10806 1
   11283    10805    10833 1
   11284    10805    10834 1
   11285    10806    10807 1
   11286    10806    10835 1
   11287    10806    10836 1
   11288    10807    10808 1
   11289    10807    10837 1
   11290    10807    10838 1
   11291    10808    10839 1
   11292    10808    10840 1
   11293    10808    10841 1
   11294    10842    10843 1
   11295    10842    10858 1
   11296    10842    10859 1
   11297    10843    10844 1
   11298    10843    10850 1
   11299    10843    10860 1
   11300    10844    10845 1
   11301    10844    10861 1
   11302    10844    10862 1
   11303    10845    10846 1
   11304    10845    10863 1
   11305    10845    10864 1
   11306    10846    10847 1
   11307    10846    10865 1
   11308    10846    10866 1
   11309    10847    10848 1
   11310    10847    10867 1
   11311    10847    10868 1
   11312    10848    10849 1
   11313    10848    10869 1
   11314    10848    10870 1
   11315    10849    10871 1
   11316    10849    10872 1
   11317    10849    10873 1
   11318    10850    10851 1
   11319    10850    10874 1
   11320    10850    10875 1
   11321    10851    10852 1
   11322    10851    10876 1
   11323    10851    10877 1
   11324    10852    10853 1
   11325    10852    10878 1
   11326    10852    10879 1
   11327    10853    10854 1
   11328    10853    10880 1
   11329    10853    10881 1
   11330    10854    10855 1
   11331    10854    10882 1
   11332    10854    10883 1
   11333    10855    10856 1
   11334    10855    10884 1
   11335    10855    10885 1
   11336    10856    10857 1
   11337    10856    10886 1
   11338    10856    10887 1
   11339    10857    10888 1
   11340    10857    10889 1
   11341    10857    10890 1
   11342    10891    10892 1
   11343    10891    10898 1
   11344    10891    10914 1
   11345    10891    10963 1
   11346    10892    10893 1
   11347    10892    10896 1
   11348    10893    10894 1
   11349    10893    10897 1
   11350    10894    10895 1
   11351    10895    10896 1
   11352    10896    10902 1
   11353    10897    10898 1
   11354    10897    10901 1
   11355    10898    10899 1
   11356    10899    10900 1
   11357    10899    10903 1
   11358    10900    10901 1
   11359    10900    10906 1
   11360    10904    10905 1
   11361    10904    10912 1
   11362    10905    10906 1
   11363    10905    10913 1
   11364    10906    10907 1
   11365    10907    10908 1
   11366    10907    10911 1
   11367    10908    10909 1
   11368    10909    10910 1
   11369    10910    10911 1
   11370    10911    10912 1
   11371    10912    11016 1
   11372    10914    10915 1
   11373    10914    10930 1
   11374    10914    10931 1
   11375    10915    10916 1
   11376    10915    10922 1
   11377    10915    10932 1
   11378    10916    10917 1
   11379    10916    10933 1
   11380    10916    10934 1
   11381    10917    10918 1
   11382    10917    10935 1
   11383    10917    10936 1
   11384    10918    10919 1
   11385    10918    10937 1
   11386    10918    10938 1
   11387    10919    10920 1
   11388    10919    10939 1
   11389    10919    10940 1
   11390    10920    10921 1
   11391    10920    10941 1
   11392    10920    10942 1
   11393    10921    10943 1
   11394    10921    10944 1
   11395    10921    10945 1
   11396    10922    10923 1
   11397    10922    10946 1
   11398    10922    10947 1
   11399    10923    10924 1
   11400    10923    10948 1
   11401    10923    10949 1
   11402    10924    10925 1
   11403    10924    10950 1
   11404    10924    10951 1
   11405    10925    10926 1
   11406    10925    10952 1
   11407    10925    10953 1
   11408    10926    10927 1
   11409    10926    10954 1
   11410    10926    10955 1
   11411    10927    10928 1
   11412    10927    10956 1
   11413    10927    10957 1
   11414    10928    10929 1
   11415    10928    10958 1
   11416    10928    10959 1
   11417    10929    10960 1
   11418    10929    10961 1
   11419    10929    10962 1
   11420    10963    10964 1
   11421    10963    10979 1
   11422    10963    10980 1
   11423    10964    10965 1
   11424    10964    10971 1
   11425    10964    10981 1
   11426    10965    10966 1
   11427    10965    10982 1
   11428    10965    10983 1
   11429    10966    10967 1
   11430    10966    10984 1
   11431    10966    10985 1
   11432    10967    10968 1
   11433    10967    10986 1
   11434    10967    10987 1
   11435    10968    10969 1
   11436    10968    10988 1
   11437    10968    10989 1
   11438    10969    10970 1
   11439    10969    10990 1
   11440    10969    10991 1
   11441    10970    10992 1
   11442    10970    10993 1
   11443    10970    10994 1
   11444    10971    10972 1
   11445    10971    10995 1
   11446    10971    10996 1
   11447    10972    10973 1
   11448    10972    10997 1
   11449    10972    10998 1
   11450    10973    10974 1
   11451    10973    10999 1
   11452    10973    11000 1
   11453    10974    10975 1
   11454    10974    11001 1
   11455    10974    11002 1
   11456    10975    10976 1
   11457    10975    11003 1
   11458    10975    11004 1
   11459    10976    10977 1
   11460    10976    11005 1
   11461    10976    11006 1
   11462    10977    10978 1
   11463    10977    11007 1
   11464    10977    11008 1
   11465    10978    11009 1
   11466    10978    11010 1
   11467    10978    11011 1
   11468    11012    11013 1
   11469    11012    11019 1
   11470    11012    11035 1
   11471    11012    11084 1
   11472    11013    11014 1
   11473    11013    11017 1
   11474    11014    11015 1
   11475    11014    11018 1
   11476    11015    11016 1
   11477    11016    11017 1
   11478    11017    11023 1
   11479    11018    11019 1
   11480    11018    11022 1
   11481    11019    11020 1
   11482    11020    11021 1
   11483    11020    11024 1
   11484    11021    11022 1
   11485    11021    11027 1
   11486    11025    11026 1
   11487    11025    11033 1
   11488    11026    11027 1
   11489    11026    11034 1
   11490    11027    11028 1
   11491    11028    11029 1
   11492    11028    11032 1
   11493    11029    11030 1
   11494    11030    11031 1
   11495    11031    11032 1
   11496    11032    11033 1
   11497    11033    11137 1
   11498    11035    11036 1
   11499    11035    11051 1
   11500    11035    11052 1
   11501    11036    11037 1
   11502    11036    11043 1
   11503    11036    11053 1
   11504    11037    11038 1
   11505    11037    11054 1
   11506    11037    11055 1
   11507    11038    11039 1
   11508    11038    11056 1
   11509    11038    11057 1
   11510    11039    11040 1
   11511    11039    11058 1
   11512    11039    11059 1
   11513    11040    11041 1
   11514    11040    11060 1
   11515    11040    11061 1
   11516    11041    11042 1
   11517    11041    11062 1
   11518    11041    11063 1
   11519    11042    11064 1
   11520    11042    11065 1
   11521    11042    11066 1
   11522    11043    11044 1
   11523    11043    11067 1
   11524    11043    11068 1
   11525    11044    11045 1
   11526    11044    11069 1
   11527    11044    11070 1
   11528    11045    11046 1
   11529    11045    11071 1
   11530    11045    11072 1
   11531    11046    11047 1
   11532    11046    11073 1
   11533    11046    11074 1
   11534    11047    11048 1
   11535    11047    11075 1
   11536    11047    11076 1
   11537    11048    11049 1
   11538    11048    11077 1
   11539    11048    11078 1
   11540    11049    11050 1
   11541    11049    11079 1
   11542    11049    11080 1
   11543    11050    11081 1
   11544    11050    11082 1
   11545    11050    11083 1
   11546    11084    11085 1
   11547    11084    11100 1
   11548    11084    11101 1
   11549    11085    11086 1
   11550    11085    11092 1
   11551    11085    11102 1
   11552    11086    11087 1
   11553    11086    11103 1
   11554    11086    11104 1
   11555    11087    11088 1
   11556    11087    11105 1
   11557    11087    11106 1
   11558    11088    11089 1
   11559    11088    11107 1
   11560    11088    11108 1
   11561    11089    11090 1
   11562    11089    11109 1
   11563    11089    11110 1
   11564    11090    11091 1
   11565    11090    11111 1
   11566    11090    11112 1
   11567    11091    11113 1
   11568    11091    11114 1
   11569    11091    11115 1
   11570    11092    11093 1
   11571    11092    11116 1
   11572    11092    11117 1
   11573    11093    11094 1
   11574    11093    11118 1
   11575    11093    11119 1
   11576    11094    11095 1
   11577    11094    11120 1
   11578    11094    11121 1
   11579    11095    11096 1
   11580    11095    11122 1
   11581    11095    11123 1
   11582    11096    11097 1
   11583    11096    11124 1
   11584    11096    11125 1
   11585    11097    11098 1
   11586    11097    11126 1
   11587    11097    11127 1
   11588    11098    11099 1
   11589    11098    11128 1
   11590    11098    11129 1
   11591    11099    11130 1
   11592    11099    11131 1
   11593    11099    11132 1
   11594    11133    11134 1
   11595    11133    11140 1
   11596    11133    11156 1
   11597    11133    11205 1
   11598    11134    11135 1
   11599    11134    11138 1
   11600    11135    11136 1
   11601    11135    11139 1
   11602    11136    11137 1
   11603    11137    11138 1
   11604    11138    11144 1
   11605    11139    11140 1
   11606    11139    11143 1
   11607    11140    11141 1
   11608    11141    11142 1
   11609    11141    11145 1
   11610    11142    11143 1
   11611    11142    11148 1
   11612    11146    11147 1
   11613    11146    11154 1
   11614    11147    11148 1
   11615    11147    11155 1
   11616    11148    11149 1
   11617    11149    11150 1
   11618    11149    11153 1
   11619    11150    11151 1
   11620    11151    11152 1
   11621    11152    11153 1
   11622    11153    11154 1
   11623    11154    11258 1
   11624    11156    11157 1
   11625    11156    11172 1
   11626    11156    11173 1
   11627    11157    11158 1
   11628    11157    11164 1
   11629    11157    11174 1
   11630    11158    11159 1
   11631    11158    11175 1
   11632    11158    11176 1
   11633    11159    11160 1
   11634    11159    11177 1
   11635    11159    11178 1
   11636    11160    11161 1
   11637    11160    11179 1
   11638    11160    11180 1
   11639    11161    11162 1
   11640    11161    11181 1
   11641    11161    11182 1
   11642    11162    11163 1
   11643    11162    11183 1
   11644    11162    11184 1
   11645    11163    11185 1
   11646    11163    11186 1
   11647    11163    11187 1
   11648    11164    11165 1
   11649    11164    11188 1
   11650    11164    11189 1
   11651    11165    11166 1
   11652    11165    11190 1
   11653    11165    11191 1
   11654    11166    11167 1
   11655    11166    11192 1
   11656    11166    11193 1
   11657    11167    11168 1
   11658    11167    11194 1
   11659    11167    11195 1
   11660    11168    11169 1
   11661    11168    11196 1
   11662    11168    11197 1
   11663    11169    11170 1
   11664    11169    11198 1
   11665    11169    11199 1
   11666    11170    11171 1
   11667    11170    11200 1
   11668    11170    11201 1
   11669    11171    11202 1
   11670    11171    11203 1
   11671    11171    11204 1
   11672    11205    11206 1
   11673    11205    11221 1
   11674    11205    11222 1
   11675    11206    11207 1
   11676    11206    11213 1
   11677    11206    11223 1
   11678    11207    11208 1
   11679    11207    11224 1
   11680    11207    11225 1
   11681    11208    11209 1
   11682    11208    11226 1
   11683    11208    11227 1
   11684    11209    11210 1
   11685    11209    11228 1
   11686    11209    11229 1
   11687    11210    11211 1
   11688    11210    11230 1
   11689    11210    11231 1
   11690    11211    11212 1
   11691    11211    11232 1
   11692    11211    11233 1
   11693    11212    11234 1
   11694    11212    11235 1
   11695    11212    11236 1
   11696    11213    11214 1
   11697    11213    11237 1
   11698    11213    11238 1
   11699    11214    11215 1
   11700    11214    11239 1
   11701    11214    11240 1
   11702    11215    11216 1
   11703    11215    11241 1
   11704    11215    11242 1
   11705    11216    11217 1
   11706    11216    11243 1
   11707    11216    11244 1
   11708    11217    11218 1
   11709    11217    11245 1
   11710    11217    11246 1
   11711    11218    11219 1
   11712    11218    11247 1
   11713    11218    11248 1
   11714    11219    11220 1
   11715    11219    11249 1
   11716    11219    11250 1
   11717    11220    11251 1
   11718    11220    11252 1
   11719    11220    11253 1
   11720    11254    11255 1
   11721    11254    11261 1
   11722    11254    11277 1
   11723    11254    11326 1
   11724    11255    11256 1
   11725    11255    11259 1
   11726    11256    11257 1
   11727    11256    11260 1
   11728    11257    11258 1
   11729    11258    11259 1
   11730    11259    11265 1
   11731    11260    11261 1
   11732    11260    11264 1
   11733    11261    11262 1
   11734    11262    11263 1
   11735    11262    11266 1
   11736    11263    11264 1
   11737    11263    11269 1
   11738    11267    11268 1
   11739    11267    11275 1
   11740    11268    11269 1
   11741    11268    11276 1
   11742    11269    11270 1
   11743    11270    11271 1
   11744    11270    11274 1
   11745    11271    11272 1
   11746    11272    11273 1
   11747    11273    11274 1
   11748    11274    11275 1
   11749    11275    11379 1
   11750    11277    11278 1
   11751    11277    11293 1
   11752    11277    11294 1
   11753    11278    11279 1
   11754    11278    11285 1
   11755    11278    11295 1
   11756    11279    11280 1
   11757    11279    11296 1
   11758    11279    11297 1
   11759    11280    11281 1
   11760    11280    11298 1
   11761    11280    11299 1
   11762    11281    11282 1
   11763    11281    11300 1
   11764    11281    11301 1
   11765    11282    11283 1
   11766    11282    11302 1
   11767    11282    11303 1
   11768    11283    11284 1
   11769    11283    11304 1
   11770    11283    11305 1
   11771    11284    11306 1
   11772    11284    11307 1
   11773    11284    11308 1
   11774    11285    11286 1
   11775    11285    11309 1
   11776    11285    11310 1
   11777    11286    11287 1
   11778    11286    11311 1
   11779    11286    11312 1
   11780    11287    11288 1
   11781    11287    11313 1
   11782    11287    11314 1
   11783    11288    11289 1
   11784    11288    11315 1
   11785    11288    11316 1
   11786    11289    11290 1
   11787    11289    11317 1
   11788    11289    11318 1
   11789    11290    11291 1
   11790    11290    11319 1
   11791    11290    11320 1
   11792    11291    11292 1
   11793    11291    11321 1
   11794    11291    11322 1
   11795    11292    11323 1
   11796    11292    11324 1
   11797    11292    11325 1
   11798    11326    11327 1
   11799    11326    11342 1
   11800    11326    11343 1
   11801    11327    11328 1
   11802    11327    11334 1
   11803    11327    11344 1
   11804    11328    11329 1
   11805    11328    11345 1
   11806    11328    11346 1
   11807    11329    11330 1
   11808    11329    11347 1
   11809    11329    11348 1
   11810    11330    11331 1
   11811    11330    11349 1
   11812    11330    11350 1
   11813    11331    11332 1
   11814    11331    11351 1
   11815    11331    11352 1
   11816    11332    11333 1
   11817    11332    11353 1
   11818    11332    11354 1
   11819    11333    11355 1
   11820    11333    11356 1
   11821    11333    11357 1
   11822    11334    11335 1
   11823    11334    11358 1
   11824    11334    11359 1
   11825    11335    11336 1
   11826    11335    11360 1
   11827    11335    11361 1
   11828    11336    11337 1
   11829    11336    11362 1
   11830    11336    11363 1
   11831    11337    11338 1
   11832    11337    11364 1
   11833    11337    11365 1
   11834    11338    11339 1
   11835    11338    11366 1
   11836    11338    11367 1
   11837    11339    11340 1
   11838    11339    11368 1
   11839    11339    11369 1
   11840    11340    11341 1
   11841    11340    11370 1
   11842    11340    11371 1
   11843    11341    11372 1
   11844    11341    11373 1
   11845    11341    11374 1
   11846    11375    11376 1
   11847    11375    11382 1
   11848    11375    11398 1
   11849    11375    11447 1
   11850    11376    11377 1
   11851    11376    11380 1
   11852    11377    11378 1
   11853    11377    11381 1
   11854    11378    11379 1
   11855    11379    11380 1
   11856    11380    11386 1
   11857    11381    11382 1
   11858    11381    11385 1
   11859    11382    11383 1
   11860    11383    11384 1
   11861    11383    11387 1
   11862    11384    11385 1
   11863    11384    11390 1
   11864    11388    11389 1
   11865    11388    11396 1
   11866    11389    11390 1
   11867    11389    11397 1
   11868    11390    11391 1
   11869    11391    11392 1
   11870    11391    11395 1
   11871    11392    11393 1
   11872    11393    11394 1
   11873    11394    11395 1
   11874    11395    11396 1
   11875    11396    11500 1
   11876    11398    11399 1
   11877    11398    11414 1
   11878    11398    11415 1
   11879    11399    11400 1
   11880    11399    11406 1
   11881    11399    11416 1
   11882    11400    11401 1
   11883    11400    11417 1
   11884    11400    11418 1
   11885    11401    11402 1
   11886    11401    11419 1
   11887    11401    11420 1
   11888    11402    11403 1
   11889    11402    11421 1
   11890    11402    11422 1
   11891    11403    11404 1
   11892    11403    11423 1
   11893    11403    11424 1
   11894    11404    11405 1
   11895    11404    11425 1
   11896    11404    11426 1
   11897    11405    11427 1
   11898    11405    11428 1
   11899    11405    11429 1
   11900    11406    11407 1
   11901    11406    11430 1
   11902    11406    11431 1
   11903    11407    11408 1
   11904    11407    11432 1
   11905    11407    11433 1
   11906    11408    11409 1
   11907    11408    11434 1
   11908    11408    11435 1
   11909    11409    11410 1
   11910    11409    11436 1
   11911    11409    11437 1
   11912    11410    11411 1
   11913    11410    11438 1
   11914    11410    11439 1
   11915    11411    11412 1
   11916    11411    11440 1
   11917    11411    11441 1
   11918    11412    11413 1
   11919    11412    11442 1
   11920    11412    11443 1
   11921    11413    11444 1
   11922    11413    11445 1
   11923    11413    11446 1
   11924    11447    11448 1
   11925    11447    11463 1
   11926    11447    11464 1
   11927    11448    11449 1
   11928    11448    11455 1
   11929    11448    11465 1
   11930    11449    11450 1
   11931    11449    11466 1
   11932    11449    11467 1
   11933    11450    11451 1
   11934    11450    11468 1
   11935    11450    11469 1
   11936    11451    11452 1
   11937    11451    11470 1
   11938    11451    11471 1
   11939    11452    11453 1
   11940    11452    11472 1
   11941    11452    11473 1
   11942    11453    11454 1
   11943    11453    11474 1
   11944    11453    11475 1
   11945    11454    11476 1
   11946    11454    11477 1
   11947    11454    11478 1
   11948    11455    11456 1
   11949    11455    11479 1
   11950    11455    11480 1
   11951    11456    11457 1
   11952    11456    11481 1
   11953    11456    11482 1
   11954    11457    11458 1
   11955    11457    11483 1
   11956    11457    11484 1
   11957    11458    11459 1
   11958    11458    11485 1
   11959    11458    11486 1
   11960    11459    11460 1
   11961    11459    11487 1
   11962    11459    11488 1
   11963    11460    11461 1
   11964    11460    11489 1
   11965    11460    11490 1
   11966    11461    11462 1
   11967    11461    11491 1
   11968    11461    11492 1
   11969    11462    11493 1
   11970    11462    11494 1
   11971    11462    11495 1
   11972    11496    11497 1
   11973    11496    11503 1
   11974    11496    11519 1
   11975    11496    11568 1
   11976    11497    11498 1
   11977    11497    11501 1
   11978    11498    11499 1
   11979    11498    11502 1
   11980    11499    11500 1
   11981    11500    11501 1
   11982    11501    11507 1
   11983    11502    11503 1
   11984    11502    11506 1
   11985    11503    11504 1
   11986    11504    11505 1
   11987    11504    11508 1
   11988    11505    11506 1
   11989    11505    11511 1
   11990    11509    11510 1
   11991    11509    11517 1
   11992    11510    11511 1
   11993    11510    11518 1
   11994    11511    11512 1
   11995    11512    11513 1
   11996    11512    11516 1
   11997    11513    11514 1
   11998    11514    11515 1
   11999    11515    11516 1
   12000    11516    11517 1
   12001    11517    11621 1
   12002    11519    11520 1
   12003    11519    11535 1
   12004    11519    11536 1
   12005    11520    11521 1
   12006    11520    11527 1
   12007    11520    11537 1
   12008    11521    11522 1
   12009    11521    11538 1
   12010    11521    11539 1
   12011    11522    11523 1
   12012    11522    11540 1
   12013    11522    11541 1
   12014    11523    11524 1
   12015    11523    11542 1
   12016    11523    11543 1
   12017    11524    11525 1
   12018    11524    11544 1
   12019    11524    11545 1
   12020    11525    11526 1
   12021    11525    11546 1
   12022    11525    11547 1
   12023    11526    11548 1
   12024    11526    11549 1
   12025    11526    11550 1
   12026    11527    11528 1
   12027    11527    11551 1
   12028    11527    11552 1
   12029    11528    11529 1
   12030    11528    11553 1
   12031    11528    11554 1
   12032    11529    11530 1
   12033    11529    11555 1
   12034    11529    11556 1
   12035    11530    11531 1
   12036    11530    11557 1
   12037    11530    11558 1
   12038    11531    11532 1
   12039    11531    11559 1
   12040    11531    11560 1
   12041    11532    11533 1
   12042    11532    11561 1
   12043    11532    11562 1
   12044    11533    11534 1
   12045    11533    11563 1
   12046    11533    11564 1
   12047    11534    11565 1
   12048    11534    11566 1
   12049    11534    11567 1
   12050    11568    11569 1
   12051    11568    11584 1
   12052    11568    11585 1
   12053    11569    11570 1
   12054    11569    11576 1
   12055    11569    11586 1
   12056    11570    11571 1
   12057    11570    11587 1
   12058    11570    11588 1
   12059    11571    11572 1
   12060    11571    11589 1
   12061    11571    11590 1
   12062    11572    11573 1
   12063    11572    11591 1
   12064    11572    11592 1
   12065    11573    11574 1
   12066    11573    11593 1
   12067    11573    11594 1
   12068    11574    11575 1
   12069    11574    11595 1
   12070    11574    11596 1
   12071    11575    11597 1
   12072    11575    11598 1
   12073    11575    11599 1
   12074    11576    11577 1
   12075    11576    11600 1
   12076    11576    11601 1
   12077    11577    11578 1
   12078    11577    11602 1
   12079    11577    11603 1
   12080    11578    11579 1
   12081    11578    11604 1
   12082    11578    11605 1
   12083    11579    11580 1
   12084    11579    11606 1
   12085    11579    11607 1
   12086    11580    11581 1
   12087    11580    11608 1
   12088    11580    11609 1
   12089    11581    11582 1
   12090    11581    11610 1
   12091    11581    11611 1
   12092    11582    11583 1
   12093    11582    11612 1
   12094    11582    11613 1
   12095    11583    11614 1
   12096    11583    11615 1
   12097    11583    11616 1
   12098    11617    11618 1
   12099    11617    11624 1
   12100    11617    11640 1
   12101    11617    11689 1
   12102    11618    11619 1
   12103    11618    11622 1
   12104    11619    11620 1
   12105    11619    11623 1
   12106    11620    11621 1
   12107    11621    11622 1
   12108    11622    11628 1
   12109    11623    11624 1
   12110    11623    11627 1
   12111    11624    11625 1
   12112    11625    11626 1
   12113    11625    11629 1
   12114    11626    11627 1
   12115    11626    11632 1
   12116    11630    11631 1
   12117    11630    11638 1
   12118    11631    11632 1
   12119    11631    11639 1
   12120    11632    11633 1
   12121    11633    11634 1
   12122    11633    11637 1
   12123    11634    11635 1
   12124    11635    11636 1
   12125    11636    11637 1
   12126    11637    11638 1
   12127    11638    11742 1
   12128    11640    11641 1
   12129    11640    11656 1
   12130    11640    11657 1
   12131    11641    11642 1
   12132    11641    11648 1
   12133    11641    11658 1
   12134    11642    11643 1
   12135    11642    11659 1
   12136    11642    11660 1
   12137    11643    11644 1
   12138    11643    11661 1
   12139    11643    11662 1
   12140    11644    11645 1
   12141    11644    11663 1
   12142    11644    11664 1
   12143    11645    11646 1
   12144    11645    11665 1
   12145    11645    11666 1
   12146    11646    11647 1
   12147    11646    11667 1
   12148    11646    11668 1
   12149    11647    11669 1
   12150    11647    11670 1
   12151    11647    11671 1
   12152    11648    11649 1
   12153    11648    11672 1
   12154    11648    11673 1
   12155    11649    11650 1
   12156    11649    11674 1
   12157    11649    11675 1
   12158    11650    11651 1
   12159    11650    11676 1
   12160    11650    11677 1
   12161    11651    11652 1
   12162    11651    11678 1
   12163    11651    11679 1
   12164    11652    11653 1
   12165    11652    11680 1
   12166    11652    11681 1
   12167    11653    11654 1
   12168    11653    11682 1
   12169    11653    11683 1
   12170    11654    11655 1
   12171    11654    11684 1
   12172    11654    11685 1
   12173    11655    11686 1
   12174    11655    11687 1
   12175    11655    11688 1
   12176    11689    11690 1
   12177    11689    11705 1
   12178    11689    11706 1
   12179    11690    11691 1
   12180    11690    11697 1
   12181    11690    11707 1
   12182    11691    11692 1
   12183    11691    11708 1
   12184    11691    11709 1
   12185    11692    11693 1
   12186    11692    11710 1
   12187    11692    11711 1
   12188    11693    11694 1
   12189    11693    11712 1
   12190    11693    11713 1
   12191    11694    11695 1
   12192    11694    11714 1
   12193    11694    11715 1
   12194    11695    11696 1
   12195    11695    11716 1
   12196    11695    11717 1
   12197    11696    11718 1
   12198    11696    11719 1
   12199    11696    11720 1
   12200    11697    11698 1
   12201    11697    11721 1
   12202    11697    11722 1
   12203    11698    11699 1
   12204    11698    11723 1
   12205    11698    11724 1
   12206    11699    11700 1
   12207    11699    11725 1
   12208    11699    11726 1
   12209    11700    11701 1
   12210    11700    11727 1
   12211    11700    11728 1
   12212    11701    11702 1
   12213    11701    11729 1
   12214    11701    11730 1
   12215    11702    11703 1
   12216    11702    11731 1
   12217    11702    11732 1
   12218    11703    11704 1
   12219    11703    11733 1
   12220    11703    11734 1
   12221    11704    11735 1
   12222    11704    11736 1
   12223    11704    11737 1
   12224    11738    11739 1
   12225    11738    11745 1
   12226    11738    11761 1
   12227    11738    11810 1
   12228    11739    11740 1
   12229    11739    11743 1
   12230    11740    11741 1
   12231    11740    11744 1
   12232    11741    11742 1
   12233    11742    11743 1
   12234    11743    11749 1
   12235    11744    11745 1
   12236    11744    11748 1
   12237    11745    11746 1
   12238    11746    11747 1
   12239    11746    11750 1
   12240    11747    11748 1
   12241    11747    11753 1
   12242    11751    11752 1
   12243    11751    11759 1
   12244    11752    11753 1
   12245    11752    11760 1
   12246    11753    11754 1
   12247    11754    11755 1
   12248    11754    11758 1
   12249    11755    11756 1
   12250    11756    11757 1
   12251    11757    11758 1
   12252    11758    11759 1
   12253    11759    11863 1
   12254    11761    11762 1
   12255    11761    11777 1
   12256    11761    11778 1
   12257    11762    11763 1
   12258    11762    11769 1
   12259    11762    11779 1
   12260    11763    11764 1
   12261    11763    11780 1
   12262    11763    11781 1
   12263    11764    11765 1
   12264    11764    11782 1
   12265    11764    11783 1
   12266    11765    11766 1
   12267    11765    11784 1
   12268    11765    11785 1
   12269    11766    11767 1
   12270    11766    11786 1
   12271    11766    11787 1
   12272    11767    11768 1
   12273    11767    11788 1
   12274    11767    11789 1
   12275    11768    11790 1
   12276    11768    11791 1
   12277    11768    11792 1
   12278    11769    11770 1
   12279    11769    11793 1
   12280    11769    11794 1
   12281    11770    11771 1
   12282    11770    11795 1
   12283    11770    11796 1
   12284    11771    11772 1
   12285    11771    11797 1
   12286    11771    11798 1
   12287    11772    11773 1
   12288    11772    11799 1
   12289    11772    11800 1
   12290    11773    11774 1
   12291    11773    11801 1
   12292    11773    11802 1
   12293    11774    11775 1
   12294    11774    11803 1
   12295    11774    11804 1
   12296    11775    11776 1
   12297    11775    11805 1
   12298    11775    11806 1
   12299    11776    11807 1
   12300    11776    11808 1
   12301    11776    11809 1
   12302    11810    11811 1
   12303    11810    11826 1
   12304    11810    11827 1
   12305    11811    11812 1
   12306    11811    11818 1
   12307    11811    11828 1
   12308    11812    11813 1
   12309    11812    11829 1
   12310    11812    11830 1
   12311    11813    11814 1
   12312    11813    11831 1
   12313    11813    11832 1
   12314    11814    11815 1
   12315    11814    11833 1
   12316    11814    11834 1
   12317    11815    11816 1
   12318    11815    11835 1
   12319    11815    11836 1
   12320    11816    11817 1
   12321    11816    11837 1
   12322    11816    11838 1
   12323    11817    11839 1
   12324    11817    11840 1
   12325    11817    11841 1
   12326    11818    11819 1
   12327    11818    11842 1
   12328    11818    11843 1
   12329    11819    11820 1
   12330    11819    11844 1
   12331    11819    11845 1
   12332    11820    11821 1
   12333    11820    11846 1
   12334    11820    11847 1
   12335    11821    11822 1
   12336    11821    11848 1
   12337    11821    11849 1
   12338    11822    11823 1
   12339    11822    11850 1
   12340    11822    11851 1
   12341    11823    11824 1
   12342    11823    11852 1
   12343    11823    11853 1
   12344    11824    11825 1
   12345    11824    11854 1
   12346    11824    11855 1
   12347    11825    11856 1
   12348    11825    11857 1
   12349    11825    11858 1
   12350    11859    11860 1
   12351    11859    11866 1
   12352    11859    11882 1
   12353    11859    11931 1
   12354    11860    11861 1
   12355    11860    11864 1
   12356    11861    11862 1
   12357    11861    11865 1
   12358    11862    11863 1
   12359    11863    11864 1
   12360    11864    11870 1
   12361    11865    11866 1
   12362    11865    11869 1
   12363    11866    11867 1
   12364    11867    11868 1
   12365    11867    11871 1
   12366    11868    11869 1
   12367    11868    11874 1
   12368    11872    11873 1
   12369    11872    11880 1
   12370    11873    11874 1
   12371    11873    11881 1
   12372    11874    11875 1
   12373    11875    11876 1
   12374    11875    11879 1
   12375    11876    11877 1
   12376    11877    11878 1
   12377    11878    11879 1
   12378    11879    11880 1
   12379    11880    11984 1
   12380    11882    11883 1
   12381    11882    11898 1
   12382    11882    11899 1
   12383    11883    11884 1
   12384    11883    11890 1
   12385    11883    11900 1
   12386    11884    11885 1
   12387    11884    11901 1
   12388    11884    11902 1
   12389    11885    11886 1
   12390    11885    11903 1
   12391    11885    11904 1
   12392    11886    11887 1
   12393    11886    11905 1
   12394    11886    11906 1
   12395    11887    11888 1
   12396    11887    11907 1
   12397    11887    11908 1
   12398    11888    11889 1
   12399    11888    11909 1
   12400    11888    11910 1
   12401    11889    11911 1
   12402    11889    11912 1
   12403    11889    11913 1
   12404    11890    11891 1
   12405    11890    11914 1
   12406    11890    11915 1
   12407    11891    11892 1
   12408    11891    11916 1
   12409    11891    11917 1
   12410    11892    11893 1
   12411    11892    11918 1
   12412    11892    11919 1
   12413    11893    11894 1
   12414    11893    11920 1
   12415    11893    11921 1
   12416    11894    11895 1
   12417    11894    11922 1
   12418    11894    11923 1
   12419    11895    11896 1
   12420    11895    11924 1
   12421    11895    11925 1
   12422    11896    11897 1
   12423    11896    11926 1
   12424    11896    11927 1
   12425    11897    11928 1
   12426    11897    11929 1
   12427    11897    11930 1
   12428    11931    11932 1
   12429    11931    11947 1
   12430    11931    11948 1
   12431    11932    11933 1
   12432    11932    11939 1
   12433    11932    11949 1
   12434    11933    11934 1
   12435    11933    11950 1
   12436    11933    11951 1
   12437    11934    11935 1
   12438    11934    11952 1
   12439    11934    11953 1
   12440    11935    11936 1
   12441    11935    11954 1
   12442    11935    11955 1
   12443    11936    11937 1
   12444    11936    11956 1
   12445    11936    11957 1
   12446    11937    11938 1
   12447    11937    11958 1
   12448    11937    11959 1
   12449    11938    11960 1
   12450    11938    11961 1
   12451    11938    11962 1
   12452    11939    11940 1
   12453    11939    11963 1
   12454    11939    11964 1
   12455    11940    11941 1
   12456    11940    11965 1
   12457    11940    11966 1
   12458    11941    11942 1
   12459    11941    11967 1
   12460    11941    11968 1
   12461    11942    11943 1
   12462    11942    11969 1
   12463    11942    11970 1
   12464    11943    11944 1
   12465    11943    11971 1
   12466    11943    11972 1
   12467    11944    11945 1
   12468    11944    11973 1
   12469    11944    11974 1
   12470    11945    11946 1
   12471    11945    11975 1
   12472    11945    11976 1
   12473    11946    11977 1
   12474    11946    11978 1
   12475    11946    11979 1
   12476    11980    11981 1
   12477    11980    11987 1
   12478    11980    12003 1
   12479    11980    12052 1
   12480    11981    11982 1
   12481    11981    11985 1
   12482    11982    11983 1
   12483    11982    11986 1
   12484    11983    11984 1
   12485    11984    11985 1
   12486    11985    11991 1
   12487    11986    11987 1
   12488    11986    11990 1
   12489    11987    11988 1
   12490    11988    11989 1
   12491    11988    11992 1
   12492    11989    11990 1
   12493    11989    11995 1
   12494    11993    11994 1
   12495    11993    12001 1
   12496    11994    11995 1
   12497    11994    12002 1
   12498    11995    11996 1
   12499    11996    11997 1
   12500    11996    12000 1
   12501    11997    11998 1
   12502    11998    11999 1
   12503    11999    12000 1
   12504    12000    12001 1
   12505    12001    12105 1
   12506    12003    12004 1
   12507    12003    12019 1
   12508    12003    12020 1
   12509    12004    12005 1
   12510    12004    12011 1
   12511    12004    12021 1
   12512    12005    12006 1
   12513    12005    12022 1
   12514    12005    12023 1
   12515    12006    12007 1
   12516    12006    12024 1
   12517    12006    12025 1
   12518    12007    12008 1
   12519    12007    12026 1
   12520    12007    12027 1
   12521    12008    12009 1
   12522    12008    12028 1
   12523    12008    12029 1
   12524    12009    12010 1
   12525    12009    12030 1
   12526    12009    12031 1
   12527    12010    12032 1
   12528    12010    12033 1
   12529    12010    12034 1
   12530    12011    12012 1
   12531    12011    12035 1
   12532    12011    12036 1
   12533    12012    12013 1
   12534    12012    12037 1
   12535    12012    12038 1
   12536    12013    12014 1
   12537    12013    12039 1
   12538    12013    12040 1
   12539    12014    12015 1
   12540    12014    12041 1
   12541    12014    12042 1
   12542    12015    12016 1
   12543    12015    12043 1
   12544    12015    12044 1
   12545    12016    12017 1
   12546    12016    12045 1
   12547    12016    12046 1
   12548    12017    12018 1
   12549    12017    12047 1
   12550    12017    12048 1
   12551    12018    12049 1
   12552    12018    12050 1
   12553    12018    12051 1
   12554    12052    12053 1
   12555    12052    12068 1
   12556    12052    12069 1
   12557    12053    12054 1
   12558    12053    12060 1
   12559    12053    12070 1
   12560    12054    12055 1
   12561    12054    12071 1
   12562    12054    12072 1
   12563    12055    12056 1
   12564    12055    12073 1
   12565    12055    12074 1
   12566    12056    12057 1
   12567    12056    12075 1
   12568    12056    12076 1
   12569    12057    12058 1
   12570    12057    12077 1
   12571    12057    12078 1
   12572    12058    12059 1
   12573    12058    12079 1
   12574    12058    12080 1
   12575    12059    12081 1
   12576    12059    12082 1
   12577    12059    12083 1
   12578    12060    12061 1
   12579    12060    12084 1
   12580    12060    12085 1
   12581    12061    12062 1
   12582    12061    12086 1
   12583    12061    12087 1
   12584    12062    12063 1
   12585    12062    12088 1
   12586    12062    12089 1
   12587    12063    12064 1
   12588    12063    12090 1
   12589    12063    12091 1
   12590    12064    12065 1
   12591    12064    12092 1
   12592    12064    12093 1
   12593    12065    12066 1
   12594    12065    12094 1
   12595    12065    12095 1
   12596    12066    12067 1
   12597    12066    12096 1
   12598    12066    12097 1
   12599    12067    12098 1
   12600    12067    12099 1
   12601    12067    12100 1
   12602    12101    12102 1
   12603    12101    12108 1
   12604    12101    12124 1
   12605    12101    12173 1
   12606    12102    12103 1
   12607    12102    12106 1
   12608    12103    12104 1
   12609    12103    12107 1
   12610    12104    12105 1
   12611    12105    12106 1
   12612    12106    12112 1
   12613    12107    12108 1
   12614    12107    12111 1
   12615    12108    12109 1
   12616    12109    12110 1
   12617    12109    12113 1
   12618    12110    12111 1
   12619    12110    12116 1
   12620    12114    12115 1
   12621    12114    12122 1
   12622    12115    12116 1
   12623    12115    12123 1
   12624    12116    12117 1
   12625    12117    12118 1
   12626    12117    12121 1
   12627    12118    12119 1
   12628    12119    12120 1
   12629    12120    12121 1
   12630    12121    12122 1
   12631    12122    12226 1
   12632    12124    12125 1
   12633    12124    12140 1
   12634    12124    12141 1
   12635    12125    12126 1
   12636    12125    12132 1
   12637    12125    12142 1
   12638    12126    12127 1
   12639    12126    12143 1
   12640    12126    12144 1
   12641    12127    12128 1
   12642    12127    12145 1
   12643    12127    12146 1
   12644    12128    12129 1
   12645    12128    12147 1
   12646    12128    12148 1
   12647    12129    12130 1
   12648    12129    12149 1
   12649    12129    12150 1
   12650    12130    12131 1
   12651    12130    12151 1
   12652    12130    12152 1
   12653    12131    12153 1
   12654    12131    12154 1
   12655    12131    12155 1
   12656    12132    12133 1
   12657    12132    12156 1
   12658    12132    12157 1
   12659    12133    12134 1
   12660    12133    12158 1
   12661    12133    12159 1
   12662    12134    12135 1
   12663    12134    12160 1
   12664    12134    12161 1
   12665    12135    12136 1
   12666    12135    12162 1
   12667    12135    12163 1
   12668    12136    12137 1
   12669    12136    12164 1
   12670    12136    12165 1
   12671    12137    12138 1
   12672    12137    12166 1
   12673    12137    12167 1
   12674    12138    12139 1
   12675    12138    12168 1
   12676    12138    12169 1
   12677    12139    12170 1
   12678    12139    12171 1
   12679    12139    12172 1
   12680    12173    12174 1
   12681    12173    12189 1
   12682    12173    12190 1
   12683    12174    12175 1
   12684    12174    12181 1
   12685    12174    12191 1
   12686    12175    12176 1
   12687    12175    12192 1
   12688    12175    12193 1
   12689    12176    12177 1
   12690    12176    12194 1
   12691    12176    12195 1
   12692    12177    12178 1
   12693    12177    12196 1
   12694    12177    12197 1
   12695    12178    12179 1
   12696    12178    12198 1
   12697    12178    12199 1
   12698    12179    12180 1
   12699    12179    12200 1
   12700    12179    12201 1
   12701    12180    12202 1
   12702    12180    12203 1
   12703    12180    12204 1
   12704    12181    12182 1
   12705    12181    12205 1
   12706    12181    12206 1
   12707    12182    12183 1
   12708    12182    12207 1
   12709    12182    12208 1
   12710    12183    12184 1
   12711    12183    12209 1
   12712    12183    12210 1
   12713    12184    12185 1
   12714    12184    12211 1
   12715    12184    12212 1
   12716    12185    12186 1
   12717    12185    12213 1
   12718    12185    12214 1
   12719    12186    12187 1
   12720    12186    12215 1
   12721    12186    12216 1
   12722    12187    12188 1
   12723    12187    12217 1
   12724    12187    12218 1
   12725    12188    12219 1
   12726    12188    12220 1
   12727    12188    12221 1
   12728    12222    12223 1
   12729    12222    12229 1
   12730    12222    12245 1
   12731    12222    12294 1
   12732    12223    12224 1
   12733    12223    12227 1
   12734    12224    12225 1
   12735    12224    12228 1
   12736    12225    12226 1
   12737    12226    12227 1
   12738    12227    12233 1
   12739    12228    12229 1
   12740    12228    12232 1
   12741    12229    12230 1
   12742    12230    12231 1
   12743    12230    12234 1
   12744    12231    12232 1
   12745    12231    12237 1
   12746    12235    12236 1
   12747    12235    12243 1
   12748    12236    12237 1
   12749    12236    12244 1
   12750    12237    12238 1
   12751    12238    12239 1
   12752    12238    12242 1
   12753    12239    12240 1
   12754    12240    12241 1
   12755    12241    12242 1
   12756    12242    12243 1
   12757    12243    12347 1
   12758    12245    12246 1
   12759    12245    12261 1
   12760    12245    12262 1
   12761    12246    12247 1
   12762    12246    12253 1
   12763    12246    12263 1
   12764    12247    12248 1
   12765    12247    12264 1
   12766    12247    12265 1
   12767    12248    12249 1
   12768    12248    12266 1
   12769    12248    12267 1
   12770    12249    12250 1
   12771    12249    12268 1
   12772    12249    12269 1
   12773    12250    12251 1
   12774    12250    12270 1
   12775    12250    12271 1
   12776    12251    12252 1
   12777    12251    12272 1
   12778    12251    12273 1
   12779    12252    12274 1
   12780    12252    12275 1
   12781    12252    12276 1
   12782    12253    12254 1
   12783    12253    12277 1
   12784    12253    12278 1
   12785    12254    12255 1
   12786    12254    12279 1
   12787    12254    12280 1
   12788    12255    12256 1
   12789    12255    12281 1
   12790    12255    12282 1
   12791    12256    12257 1
   12792    12256    12283 1
   12793    12256    12284 1
   12794    12257    12258 1
   12795    12257    12285 1
   12796    12257    12286 1
   12797    12258    12259 1
   12798    12258    12287 1
   12799    12258    12288 1
   12800    12259    12260 1
   12801    12259    12289 1
   12802    12259    12290 1
   12803    12260    12291 1
   12804    12260    12292 1
   12805    12260    12293 1
   12806    12294    12295 1
   12807    12294    12310 1
   12808    12294    12311 1
   12809    12295    12296 1
   12810    12295    12302 1
   12811    12295    12312 1
   12812    12296    12297 1
   12813    12296    12313 1
   12814    12296    12314 1
   12815    12297    12298 1
   12816    12297    12315 1
   12817    12297    12316 1
   12818    12298    12299 1
   12819    12298    12317 1
   12820    12298    12318 1
   12821    12299    12300 1
   12822    12299    12319 1
   12823    12299    12320 1
   12824    12300    12301 1
   12825    12300    12321 1
   12826    12300    12322 1
   12827    12301    12323 1
   12828    12301    12324 1
   12829    12301    12325 1
   12830    12302    12303 1
   12831    12302    12326 1
   12832    12302    12327 1
   12833    12303    12304 1
   12834    12303    12328 1
   12835    12303    12329 1
   12836    12304    12305 1
   12837    12304    12330 1
   12838    12304    12331 1
   12839    12305    12306 1
   12840    12305    12332 1
   12841    12305    12333 1
   12842    12306    12307 1
   12843    12306    12334 1
   12844    12306    12335 1
   12845    12307    12308 1
   12846    12307    12336 1
   12847    12307    12337 1
   12848    12308    12309 1
   12849    12308    12338 1
   12850    12308    12339 1
   12851    12309    12340 1
   12852    12309    12341 1
   12853    12309    12342 1
   12854    12343    12344 1
   12855    12343    12350 1
   12856    12343    12366 1
   12857    12343    12415 1
   12858    12344    12345 1
   12859    12344    12348 1
   12860    12345    12346 1
   12861    12345    12349 1
   12862    12346    12347 1
   12863    12347    12348 1
   12864    12348    12354 1
   12865    12349    12350 1
   12866    12349    12353 1
   12867    12350    12351 1
   12868    12351    12352 1
   12869    12351    12355 1
   12870    12352    12353 1
   12871    12352    12358 1
   12872    12356    12357 1
   12873    12356    12364 1
   12874    12357    12358 1
   12875    12357    12365 1
   12876    12358    12359 1
   12877    12359    12360 1
   12878    12359    12363 1
   12879    12360    12361 1
   12880    12361    12362 1
   12881    12362    12363 1
   12882    12363    12364 1
   12883    12364    12468 1
   12884    12366    12367 1
   12885    12366    12382 1
   12886    12366    12383 1
   12887    12367    12368 1
   12888    12367    12374 1
   12889    12367    12384 1
   12890    12368    12369 1
   12891    12368    12385 1
   12892    12368    12386 1
   12893    12369    12370 1
   12894    12369    12387 1
   12895    12369    12388 1
   12896    12370    12371 1
   12897    12370    12389 1
   12898    12370    12390 1
   12899    12371    12372 1
   12900    12371    12391 1
   12901    12371    12392 1
   12902    12372    12373 1
   12903    12372    12393 1
   12904    12372    12394 1
   12905    12373    12395 1
   12906    12373    12396 1
   12907    12373    12397 1
   12908    12374    12375 1
   12909    12374    12398 1
   12910    12374    12399 1
   12911    12375    12376 1
   12912    12375    12400 1
   12913    12375    12401 1
   12914    12376    12377 1
   12915    12376    12402 1
   12916    12376    12403 1
   12917    12377    12378 1
   12918    12377    12404 1
   12919    12377    12405 1
   12920    12378    12379 1
   12921    12378    12406 1
   12922    12378    12407 1
   12923    12379    12380 1
   12924    12379    12408 1
   12925    12379    12409 1
   12926    12380    12381 1
   12927    12380    12410 1
   12928    12380    12411 1
   12929    12381    12412 1
   12930    12381    12413 1
   12931    12381    12414 1
   12932    12415    12416 1
   12933    12415    12431 1
   12934    12415    12432 1
   12935    12416    12417 1
   12936    12416    12423 1
   12937    12416    12433 1
   12938    12417    12418 1
   12939    12417    12434 1
   12940    12417    12435 1
   12941    12418    12419 1
   12942    12418    12436 1
   12943    12418    12437 1
   12944    12419    12420 1
   12945    12419    12438 1
   12946    12419    12439 1
   12947    12420    12421 1
   12948    12420    12440 1
   12949    12420    12441 1
   12950    12421    12422 1
   12951    12421    12442 1
   12952    12421    12443 1
   12953    12422    12444 1
   12954    12422    12445 1
   12955    12422    12446 1
   12956    12423    12424 1
   12957    12423    12447 1
   12958    12423    12448 1
   12959    12424    12425 1
   12960    12424    12449 1
   12961    12424    12450 1
   12962    12425    12426 1
   12963    12425    12451 1
   12964    12425    12452 1
   12965    12426    12427 1
   12966    12426    12453 1
   12967    12426    12454 1
   12968    12427    12428 1
   12969    12427    12455 1
   12970    12427    12456 1
   12971    12428    12429 1
   12972    12428    12457 1
   12973    12428    12458 1
   12974    12429    12430 1
   12975    12429    12459 1
   12976    12429    12460 1
   12977    12430    12461 1
   12978    12430    12462 1
   12979    12430    12463 1
   12980    12464    12465 1
   12981    12464    12471 1
   12982    12464    12487 1
   12983    12464    12536 1
   12984    12465    12466 1
   12985    12465    12469 1
   12986    12466    12467 1
   12987    12466    12470 1
   12988    12467    12468 1
   12989    12468    12469 1
   12990    12469    12475 1
   12991    12470    12471 1
   12992    12470    12474 1
   12993    12471    12472 1
   12994    12472    12473 1
   12995    12472    12476 1
   12996    12473    12474 1
   12997    12473    12479 1
   12998    12477    12478 1
   12999    12477    12485 1
   13000    12478    12479 1
   13001    12478    12486 1
   13002    12479    12480 1
   13003    12480    12481 1
   13004    12480    12484 1
   13005    12481    12482 1
   13006    12482    12483 1
   13007    12483    12484 1
   13008    12484    12485 1
   13009    12485    12589 1
   13010    12487    12488 1
   13011    12487    12503 1
   13012    12487    12504 1
   13013    12488    12489 1
   13014    12488    12495 1
   13015    12488    12505 1
   13016    12489    12490 1
   13017    12489    12506 1
   13018    12489    12507 1
   13019    12490    12491 1
   13020    12490    12508 1
   13021    12490    12509 1
   13022    12491    12492 1
   13023    12491    12510 1
   13024    12491    12511 1
   13025    12492    12493 1
   13026    12492    12512 1
   13027    12492    12513 1
   13028    12493    12494 1
   13029    12493    12514 1
   13030    12493    12515 1
   13031    12494    12516 1
   13032    12494    12517 1
   13033    12494    12518 1
   13034    12495    12496 1
   13035    12495    12519 1
   13036    12495    12520 1
   13037    12496    12497 1
   13038    12496    12521 1
   13039    12496    12522 1
   13040    12497    12498 1
   13041    12497    12523 1
   13042    12497    12524 1
   13043    12498    12499 1
   13044    12498    12525 1
   13045    12498    12526 1
   13046    12499    12500 1
   13047    12499    12527 1
   13048    12499    12528 1
   13049    12500    12501 1
   13050    12500    12529 1
   13051    12500    12530 1
   13052    12501    12502 1
   13053    12501    12531 1
   13054    12501    12532 1
   13055    12502    12533 1
   13056    12502    12534 1
   13057    12502    12535 1
   13058    12536    12537 1
   13059    12536    12552 1
   13060    12536    12553 1
   13061    12537    12538 1
   13062    12537    12544 1
   13063    12537    12554 1
   13064    12538    12539 1
   13065    12538    12555 1
   13066    12538    12556 1
   13067    12539    12540 1
   13068    12539    12557 1
   13069    12539    12558 1
   13070    12540    12541 1
   13071    12540    12559 1
   13072    12540    12560 1
   13073    12541    12542 1
   13074    12541    12561 1
   13075    12541    12562 1
   13076    12542    12543 1
   13077    12542    12563 1
   13078    12542    12564 1
   13079    12543    12565 1
   13080    12543    12566 1
   13081    12543    12567 1
   13082    12544    12545 1
   13083    12544    12568 1
   13084    12544    12569 1
   13085    12545    12546 1
   13086    12545    12570 1
   13087    12545    12571 1
   13088    12546    12547 1
   13089    12546    12572 1
   13090    12546    12573 1
   13091    12547    12548 1
   13092    12547    12574 1
   13093    12547    12575 1
   13094    12548    12549 1
   13095    12548    12576 1
   13096    12548    12577 1
   13097    12549    12550 1
   13098    12549    12578 1
   13099    12549    12579 1
   13100    12550    12551 1
   13101    12550    12580 1
   13102    12550    12581 1
   13103    12551    12582 1
   13104    12551    12583 1
   13105    12551    12584 1
   13106    12585    12586 1
   13107    12585    12592 1
   13108    12585    12608 1
   13109    12585    12657 1
   13110    12586    12587 1
   13111    12586    12590 1
   13112    12587    12588 1
   13113    12587    12591 1
   13114    12588    12589 1
   13115    12589    12590 1
   13116    12590    12596 1
   13117    12591    12592 1
   13118    12591    12595 1
   13119    12592    12593 1
   13120    12593    12594 1
   13121    12593    12597 1
   13122    12594    12595 1
   13123    12594    12600 1
   13124    12598    12599 1
   13125    12598    12606 1
   13126    12599    12600 1
   13127    12599    12607 1
   13128    12600    12601 1
   13129    12601    12602 1
   13130    12601    12605 1
   13131    12602    12603 1
   13132    12603    12604 1
   13133    12604    12605 1
   13134    12605    12606 1
   13135    12606    12710 1
   13136    12608    12609 1
   13137    12608    12624 1
   13138    12608    12625 1
   13139    12609    12610 1
   13140    12609    12616 1
   13141    12609    12626 1
   13142    12610    12611 1
   13143    12610    12627 1
   13144    12610    12628 1
   13145    12611    12612 1
   13146    12611    12629 1
   13147    12611    12630 1
   13148    12612    12613 1
   13149    12612    12631 1
   13150    12612    12632 1
   13151    12613    12614 1
   13152    12613    12633 1
   13153    12613    12634 1
   13154    12614    12615 1
   13155    12614    12635 1
   13156    12614    12636 1
   13157    12615    12637 1
   13158    12615    12638 1
   13159    12615    12639 1
   13160    12616    12617 1
   13161    12616    12640 1
   13162    12616    12641 1
   13163    12617    12618 1
   13164    12617    12642 1
   13165    12617    12643 1
   13166    12618    12619 1
   13167    12618    12644 1
   13168    12618    12645 1
   13169    12619    12620 1
   13170    12619    12646 1
   13171    12619    12647 1
   13172    12620    12621 1
   13173    12620    12648 1
   13174    12620    12649 1
   13175    12621    12622 1
   13176    12621    12650 1
   13177    12621    12651 1
   13178    12622    12623 1
   13179    12622    12652 1
   13180    12622    12653 1
   13181    12623    12654 1
   13182    12623    12655 1
   13183    12623    12656 1
   13184    12657    12658 1
   13185    12657    12673 1
   13186    12657    12674 1
   13187    12658    12659 1
   13188    12658    12665 1
   13189    12658    12675 1
   13190    12659    12660 1
   13191    12659    12676 1
   13192    12659    12677 1
   13193    12660    12661 1
   13194    12660    12678 1
   13195    12660    12679 1
   13196    12661    12662 1
   13197    12661    12680 1
   13198    12661    12681 1
   13199    12662    12663 1
   13200    12662    12682 1
   13201    12662    12683 1
   13202    12663    12664 1
   13203    12663    12684 1
   13204    12663    12685 1
   13205    12664    12686 1
   13206    12664    12687 1
   13207    12664    12688 1
   13208    12665    12666 1
   13209    12665    12689 1
   13210    12665    12690 1
   13211    12666    12667 1
   13212    12666    12691 1
   13213    12666    12692 1
   13214    12667    12668 1
   13215    12667    12693 1
   13216    12667    12694 1
   13217    12668    12669 1
   13218    12668    12695 1
   13219    12668    12696 1
   13220    12669    12670 1
   13221    12669    12697 1
   13222    12669    12698 1
   13223    12670    12671 1
   13224    12670    12699 1
   13225    12670    12700 1
   13226    12671    12672 1
   13227    12671    12701 1
   13228    12671    12702 1
   13229    12672    12703 1
   13230    12672    12704 1
   13231    12672    12705 1
   13232    12706    12707 1
   13233    12706    12713 1
   13234    12706    12729 1
   13235    12706    12778 1
   13236    12707    12708 1
   13237    12707    12711 1
   13238    12708    12709 1
   13239    12708    12712 1
   13240    12709    12710 1
   13241    12710    12711 1
   13242    12711    12717 1
   13243    12712    12713 1
   13244    12712    12716 1
   13245    12713    12714 1
   13246    12714    12715 1
   13247    12714    12718 1
   13248    12715    12716 1
   13249    12715    12721 1
   13250    12719    12720 1
   13251    12719    12727 1
   13252    12720    12721 1
   13253    12720    12728 1
   13254    12721    12722 1
   13255    12722    12723 1
   13256    12722    12726 1
   13257    12723    12724 1
   13258    12724    12725 1
   13259    12725    12726 1
   13260    12726    12727 1
   13261    12727    12831 1
   13262    12729    12730 1
   13263    12729    12745 1
   13264    12729    12746 1
   13265    12730    12731 1
   13266    12730    12737 1
   13267    12730    12747 1
   13268    12731    12732 1
   13269    12731    12748 1
   13270    12731    12749 1
   13271    12732    12733 1
   13272    12732    12750 1
   13273    12732    12751 1
   13274    12733    12734 1
   13275    12733    12752 1
   13276    12733    12753 1
   13277    12734    12735 1
   13278    12734    12754 1
   13279    12734    12755 1
   13280    12735    12736 1
   13281    12735    12756 1
   13282    12735    12757 1
   13283    12736    12758 1
   13284    12736    12759 1
   13285    12736    12760 1
   13286    12737    12738 1
   13287    12737    12761 1
   13288    12737    12762 1
   13289    12738    12739 1
   13290    12738    12763 1
   13291    12738    12764 1
   13292    12739    12740 1
   13293    12739    12765 1
   13294    12739    12766 1
   13295    12740    12741 1
   13296    12740    12767 1
   13297    12740    12768 1
   13298    12741    12742 1
   13299    12741    12769 1
   13300    12741    12770 1
   13301    12742    12743 1
   13302    12742    12771 1
   13303    12742    12772 1
   13304    12743    12744 1
   13305    12743    12773 1
   13306    12743    12774 1
   13307    12744    12775 1
   13308    12744    12776 1
   13309    12744    12777 1
   13310    12778    12779 1
   13311    12778    12794 1
   13312    12778    12795 1
   13313    12779    12780 1
   13314    12779    12786 1
   13315    12779    12796 1
   13316    12780    12781 1
   13317    12780    12797 1
   13318    12780    12798 1
   13319    12781    12782 1
   13320    12781    12799 1
   13321    12781    12800 1
   13322    12782    12783 1
   13323    12782    12801 1
   13324    12782    12802 1
   13325    12783    12784 1
   13326    12783    12803 1
   13327    12783    12804 1
   13328    12784    12785 1
   13329    12784    12805 1
   13330    12784    12806 1
   13331    12785    12807 1
   13332    12785    12808 1
   13333    12785    12809 1
   13334    12786    12787 1
   13335    12786    12810 1
   13336    12786    12811 1
   13337    12787    12788 1
   13338    12787    12812 1
   13339    12787    12813 1
   13340    12788    12789 1
   13341    12788    12814 1
   13342    12788    12815 1
   13343    12789    12790 1
   13344    12789    12816 1
   13345    12789    12817 1
   13346    12790    12791 1
   13347    12790    12818 1
   13348    12790    12819 1
   13349    12791    12792 1
   13350    12791    12820 1
   13351    12791    12821 1
   13352    12792    12793 1
   13353    12792    12822 1
   13354    12792    12823 1
   13355    12793    12824 1
   13356    12793    12825 1
   13357    12793    12826 1
   13358    12827    12828 1
   13359    12827    12834 1
   13360    12827    12850 1
   13361    12827    12899 1
   13362    12828    12829 1
   13363    12828    12832 1
   13364    12829    12830 1
   13365    12829    12833 1
   13366    12830    12831 1
   13367    12831    12832 1
   13368    12832    12838 1
   13369    12833    12834 1
   13370    12833    12837 1
   13371    12834    12835 1
   13372    12835    12836 1
   13373    12835    12839 1
   13374    12836    12837 1
   13375    12836    12842 1
   13376    12840    12841 1
   13377    12840    12848 1
   13378    12841    12842 1
   13379    12841    12849 1
   13380    12842    12843 1
   13381    12843    12844 1
   13382    12843    12847 1
   13383    12844    12845 1
   13384    12845    12846 1
   13385    12846    12847 1
   13386    12847    12848 1
   13387    12848    12952 1
   13388    12850    12851 1
   13389    12850    12866 1
   13390    12850    12867 1
   13391    12851    12852 1
   13392    12851    12858 1
   13393    12851    12868 1
   13394    12852    12853 1
   13395    12852    12869 1
   13396    12852    12870 1
   13397    12853    12854 1
   13398    12853    12871 1
   13399    12853    12872 1
   13400    12854    12855 1
   13401    12854    12873 1
   13402    12854    12874 1
   13403    12855    12856 1
   13404    12855    12875 1
   13405    12855    12876 1
   13406    12856    12857 1
   13407    12856    12877 1
   13408    12856    12878 1
   13409    12857    12879 1
   13410    12857    12880 1
   13411    12857    12881 1
   13412    12858    12859 1
   13413    12858    12882 1
   13414    12858    12883 1
   13415    12859    12860 1
   13416    12859    12884 1
   13417    12859    12885 1
   13418    12860    12861 1
   13419    12860    12886 1
   13420    12860    12887 1
   13421    12861    12862 1
   13422    12861    12888 1
   13423    12861    12889 1
   13424    12862    12863 1
   13425    12862    12890 1
   13426    12862    12891 1
   13427    12863    12864 1
   13428    12863    12892 1
   13429    12863    12893 1
   13430    12864    12865 1
   13431    12864    12894 1
   13432    12864    12895 1
   13433    12865    12896 1
   13434    12865    12897 1
   13435    12865    12898 1
   13436    12899    12900 1
   13437    12899    12915 1
   13438    12899    12916 1
   13439    12900    12901 1
   13440    12900    12907 1
   13441    12900    12917 1
   13442    12901    12902 1
   13443    12901    12918 1
   13444    12901    12919 1
   13445    12902    12903 1
   13446    12902    12920 1
   13447    12902    12921 1
   13448    12903    12904 1
   13449    12903    12922 1
   13450    12903    12923 1
   13451    12904    12905 1
   13452    12904    12924 1
   13453    12904    12925 1
   13454    12905    12906 1
   13455    12905    12926 1
   13456    12905    12927 1
   13457    12906    12928 1
   13458    12906    12929 1
   13459    12906    12930 1
   13460    12907    12908 1
   13461    12907    12931 1
   13462    12907    12932 1
   13463    12908    12909 1
   13464    12908    12933 1
   13465    12908    12934 1
   13466    12909    12910 1
   13467    12909    12935 1
   13468    12909    12936 1
   13469    12910    12911 1
   13470    12910    12937 1
   13471    12910    12938 1
   13472    12911    12912 1
   13473    12911    12939 1
   13474    12911    12940 1
   13475    12912    12913 1
   13476    12912    12941 1
   13477    12912    12942 1
   13478    12913    12914 1
   13479    12913    12943 1
   13480    12913    12944 1
   13481    12914    12945 1
   13482    12914    12946 1
   13483    12914    12947 1
   13484    12948    12949 1
   13485    12948    12955 1
   13486    12948    12971 1
   13487    12948    13020 1
   13488    12949    12950 1
   13489    12949    12953 1
   13490    12950    12951 1
   13491    12950    12954 1
   13492    12951    12952 1
   13493    12952    12953 1
   13494    12953    12959 1
   13495    12954    12955 1
   13496    12954    12958 1
   13497    12955    12956 1
   13498    12956    12957 1
   13499    12956    12960 1
   13500    12957    12958 1
   13501    12957    12963 1
   13502    12961    12962 1
   13503    12961    12969 1
   13504    12962    12963 1
   13505    12962    12970 1
   13506    12963    12964 1
   13507    12964    12965 1
   13508    12964    12968 1
   13509    12965    12966 1
   13510    12966    12967 1
   13511    12967    12968 1
   13512    12968    12969 1
   13513    12969    13073 1
   13514    12971    12972 1
   13515    12971    12987 1
   13516    12971    12988 1
   13517    12972    12973 1
   13518    12972    12979 1
   13519    12972    12989 1
   13520    12973    12974 1
   13521    12973    12990 1
   13522    12973    12991 1
   13523    12974    12975 1
   13524    12974    12992 1
   13525    12974    12993 1
   13526    12975    12976 1
   13527    12975    12994 1
   13528    12975    12995 1
   13529    12976    12977 1
   13530    12976    12996 1
   13531    12976    12997 1
   13532    12977    12978 1
   13533    12977    12998 1
   13534    12977    12999 1
   13535    12978    13000 1
   13536    12978    13001 1
   13537    12978    13002 1
   13538    12979    12980 1
   13539    12979    13003 1
   13540    12979    13004 1
   13541    12980    12981 1
   13542    12980    13005 1
   13543    12980    13006 1
   13544    12981    12982 1
   13545    12981    13007 1
   13546    12981    13008 1
   13547    12982    12983 1
   13548    12982    13009 1
   13549    12982    13010 1
   13550    12983    12984 1
   13551    12983    13011 1
   13552    12983    13012 1
   13553    12984    12985 1
   13554    12984    13013 1
   13555    12984    13014 1
   13556    12985    12986 1
   13557    12985    13015 1
   13558    12985    13016 1
   13559    12986    13017 1
   13560    12986    13018 1
   13561    12986    13019 1
   13562    13020    13021 1
   13563    13020    13036 1
   13564    13020    13037 1
   13565    13021    13022 1
   13566    13021    13028 1
   13567    13021    13038 1
   13568    13022    13023 1
   13569    13022    13039 1
   13570    13022    13040 1
   13571    13023    13024 1
   13572    13023    13041 1
   13573    13023    13042 1
   13574    13024    13025 1
   13575    13024    13043 1
   13576    13024    13044 1
   13577    13025    13026 1
   13578    13025    13045 1
   13579    13025    13046 1
   13580    13026    13027 1
   13581    13026    13047 1
   13582    13026    13048 1
   13583    13027    13049 1
   13584    13027    13050 1
   13585    13027    13051 1
   13586    13028    13029 1
   13587    13028    13052 1
   13588    13028    13053 1
   13589    13029    13030 1
   13590    13029    13054 1
   13591    13029    13055 1
   13592    13030    13031 1
   13593    13030    13056 1
   13594    13030    13057 1
   13595    13031    13032 1
   13596    13031    13058 1
   13597    13031    13059 1
   13598    13032    13033 1
   13599    13032    13060 1
   13600    13032    13061 1
   13601    13033    13034 1
   13602    13033    13062 1
   13603    13033    13063 1
   13604    13034    13035 1
   13605    13034    13064 1
   13606    13034    13065 1
   13607    13035    13066 1
   13608    13035    13067 1
   13609    13035    13068 1
   13610    13069    13070 1
   13611    13069    13076 1
   13612    13069    13092 1
   13613    13069    13141 1
   13614    13070    13071 1
   13615    13070    13074 1
   13616    13071    13072 1
   13617    13071    13075 1
   13618    13072    13073 1
   13619    13073    13074 1
   13620    13074    13080 1
   13621    13075    13076 1
   13622    13075    13079 1
   13623    13076    13077 1
   13624    13077    13078 1
   13625    13077    13081 1
   13626    13078    13079 1
   13627    13078    13084 1
   13628    13082    13083 1
   13629    13082    13090 1
   13630    13083    13084 1
   13631    13083    13091 1
   13632    13084    13085 1
   13633    13085    13086 1
   13634    13085    13089 1
   13635    13086    13087 1
   13636    13087    13088 1
   13637    13088    13089 1
   13638    13089    13090 1
   13639    13090    13194 1
   13640    13092    13093 1
   13641    13092    13108 1
   13642    13092    13109 1
   13643    13093    13094 1
   13644    13093    13100 1
   13645    13093    13110 1
   13646    13094    13095 1
   13647    13094    13111 1
   13648    13094    13112 1
   13649    13095    13096 1
   13650    13095    13113 1
   13651    13095    13114 1
   13652    13096    13097 1
   13653    13096    13115 1
   13654    13096    13116 1
   13655    13097    13098 1
   13656    13097    13117 1
   13657    13097    13118 1
   13658    13098    13099 1
   13659    13098    13119 1
   13660    13098    13120 1
   13661    13099    13121 1
   13662    13099    13122 1
   13663    13099    13123 1
   13664    13100    13101 1
   13665    13100    13124 1
   13666    13100    13125 1
   13667    13101    13102 1
   13668    13101    13126 1
   13669    13101    13127 1
   13670    13102    13103 1
   13671    13102    13128 1
   13672    13102    13129 1
   13673    13103    13104 1
   13674    13103    13130 1
   13675    13103    13131 1
   13676    13104    13105 1
   13677    13104    13132 1
   13678    13104    13133 1
   13679    13105    13106 1
   13680    13105    13134 1
   13681    13105    13135 1
   13682    13106    13107 1
   13683    13106    13136 1
   13684    13106    13137 1
   13685    13107    13138 1
   13686    13107    13139 1
   13687    13107    13140 1
   13688    13141    13142 1
   13689    13141    13157 1
   13690    13141    13158 1
   13691    13142    13143 1
   13692    13142    13149 1
   13693    13142    13159 1
   13694    13143    13144 1
   13695    13143    13160 1
   13696    13143    13161 1
   13697    13144    13145 1
   13698    13144    13162 1
   13699    13144    13163 1
   13700    13145    13146 1
   13701    13145    13164 1
   13702    13145    13165 1
   13703    13146    13147 1
   13704    13146    13166 1
   13705    13146    13167 1
   13706    13147    13148 1
   13707    13147    13168 1
   13708    13147    13169 1
   13709    13148    13170 1
   13710    13148    13171 1
   13711    13148    13172 1
   13712    13149    13150 1
   13713    13149    13173 1
   13714    13149    13174 1
   13715    13150    13151 1
   13716    13150    13175 1
   13717    13150    13176 1
   13718    13151    13152 1
   13719    13151    13177 1
   13720    13151    13178 1
   13721    13152    13153 1
   13722    13152    13179 1
   13723    13152    13180 1
   13724    13153    13154 1
   13725    13153    13181 1
   13726    13153    13182 1
   13727    13154    13155 1
   13728    13154    13183 1
   13729    13154    13184 1
   13730    13155    13156 1
   13731    13155    13185 1
   13732    13155    13186 1
   13733    13156    13187 1
   13734    13156    13188 1
   13735    13156    13189 1
   13736    13190    13191 1
   13737    13190    13197 1
   13738    13190    13213 1
   13739    13190    13262 1
   13740    13191    13192 1
   13741    13191    13195 1
   13742    13192    13193 1
   13743    13192    13196 1
   13744    13193    13194 1
   13745    13194    13195 1
   13746    13195    13201 1
   13747    13196    13197 1
   13748    13196    13200 1
   13749    13197    13198 1
   13750    13198    13199 1
   13751    13198    13202 1
   13752    13199    13200 1
   13753    13199    13205 1
   13754    13203    13204 1
   13755    13203    13211 1
   13756    13204    13205 1
   13757    13204    13212 1
   13758    13205    13206 1
   13759    13206    13207 1
   13760    13206    13210 1
   13761    13207    13208 1
   13762    13208    13209 1
   13763    13209    13210 1
   13764    13210    13211 1
   13765    13211    13315 1
   13766    13213    13214 1
   13767    13213    13229 1
   13768    13213    13230 1
   13769    13214    13215 1
   13770    13214    13221 1
   13771    13214    13231 1
   13772    13215    13216 1
   13773    13215    13232 1
   13774    13215    13233 1
   13775    13216    13217 1
   13776    13216    13234 1
   13777    13216    13235 1
   13778    13217    13218 1
   13779    13217    13236 1
   13780    13217    13237 1
   13781    13218    13219 1
   13782    13218    13238 1
   13783    13218    13239 1
   13784    13219    13220 1
   13785    13219    13240 1
   13786    13219    13241 1
   13787    13220    13242 1
   13788    13220    13243 1
   13789    13220    13244 1
   13790    13221    13222 1
   13791    13221    13245 1
   13792    13221    13246 1
   13793    13222    13223 1
   13794    13222    13247 1
   13795    13222    13248 1
   13796    13223    13224 1
   13797    13223    13249 1
   13798    13223    13250 1
   13799    13224    13225 1
   13800    13224    13251 1
   13801    13224    13252 1
   13802    13225    13226 1
   13803    13225    13253 1
   13804    13225    13254 1
   13805    13226    13227 1
   13806    13226    13255 1
   13807    13226    13256 1
   13808    13227    13228 1
   13809    13227    13257 1
   13810    13227    13258 1
   13811    13228    13259 1
   13812    13228    13260 1
   13813    13228    13261 1
   13814    13262    13263 1
   13815    13262    13278 1
   13816    13262    13279 1
   13817    13263    13264 1
   13818    13263    13270 1
   13819    13263    13280 1
   13820    13264    13265 1
   13821    13264    13281 1
   13822    13264    13282 1
   13823    13265    13266 1
   13824    13265    13283 1
   13825    13265    13284 1
   13826    13266    13267 1
   13827    13266    13285 1
   13828    13266    13286 1
   13829    13267    13268 1
   13830    13267    13287 1
   13831    13267    13288 1
   13832    13268    13269 1
   13833    13268    13289 1
   13834    13268    13290 1
   13835    13269    13291 1
   13836    13269    13292 1
   13837    13269    13293 1
   13838    13270    13271 1
   13839    13270    13294 1
   13840    13270    13295 1
   13841    13271    13272 1
   13842    13271    13296 1
   13843    13271    13297 1
   13844    13272    13273 1
   13845    13272    13298 1
   13846    13272    13299 1
   13847    13273    13274 1
   13848    13273    13300 1
   13849    13273    13301 1
   13850    13274    13275 1
   13851    13274    13302 1
   13852    13274    13303 1
   13853    13275    13276 1
   13854    13275    13304 1
   13855    13275    13305 1
   13856    13276    13277 1
   13857    13276    13306 1
   13858    13276    13307 1
   13859    13277    13308 1
   13860    13277    13309 1
   13861    13277    13310 1
   13862    13311    13312 1
   13863    13311    13318 1
   13864    13311    13334 1
   13865    13311    13383 1
   13866    13312    13313 1
   13867    13312    13316 1
   13868    13313    13314 1
   13869    13313    13317 1
   13870    13314    13315 1
   13871    13315    13316 1
   13872    13316    13322 1
   13873    13317    13318 1
   13874    13317    13321 1
   13875    13318    13319 1
   13876    13319    13320 1
   13877    13319    13323 1
   13878    13320    13321 1
   13879    13320    13326 1
   13880    13324    13325 1
   13881    13324    13332 1
   13882    13325    13326 1
   13883    13325    13333 1
   13884    13326    13327 1
   13885    13327    13328 1
   13886    13327    13331 1
   13887    13328    13329 1
   13888    13329    13330 1
   13889    13330    13331 1
   13890    13331    13332 1
   13891    13332    13436 1
   13892    13334    13335 1
   13893    13334    13350 1
   13894    13334    13351 1
   13895    13335    13336 1
   13896    13335    13342 1
   13897    13335    13352 1
   13898    13336    13337 1
   13899    13336    13353 1
   13900    13336    13354 1
   13901    13337    13338 1
   13902    13337    13355 1
   13903    13337    13356 1
   13904    13338    13339 1
   13905    13338    13357 1
   13906    13338    13358 1
   13907    13339    13340 1
   13908    13339    13359 1
   13909    13339    13360 1
   13910    13340    13341 1
   13911    13340    13361 1
   13912    13340    13362 1
   13913    13341    13363 1
   13914    13341    13364 1
   13915    13341    13365 1
   13916    13342    13343 1
   13917    13342    13366 1
   13918    13342    13367 1
   13919    13343    13344 1
   13920    13343    13368 1
   13921    13343    13369 1
   13922    13344    13345 1
   13923    13344    13370 1
   13924    13344    13371 1
   13925    13345    13346 1
   13926    13345    13372 1
   13927    13345    13373 1
   13928    13346    13347 1
   13929    13346    13374 1
   13930    13346    13375 1
   13931    13347    13348 1
   13932    13347    13376 1
   13933    13347    13377 1
   13934    13348    13349 1
   13935    13348    13378 1
   13936    13348    13379 1
   13937    13349    13380 1
   13938    13349    13381 1
   13939    13349    13382 1
   13940    13383    13384 1
   13941    13383    13399 1
   13942    13383    13400 1
   13943    13384    13385 1
   13944    13384    13391 1
   13945    13384    13401 1
   13946    13385    13386 1
   13947    13385    13402 1
   13948    13385    13403 1
   13949    13386    13387 1
   13950    13386    13404 1
   13951    13386    13405 1
   13952    13387    13388 1
   13953    13387    13406 1
   13954    13387    13407 1
   13955    13388    13389 1
   13956    13388    13408 1
   13957    13388    13409 1
   13958    13389    13390 1
   13959    13389    13410 1
   13960    13389    13411 1
   13961    13390    13412 1
   13962    13390    13413 1
   13963    13390    13414 1
   13964    13391    13392 1
   13965    13391    13415 1
   13966    13391    13416 1
   13967    13392    13393 1
   13968    13392    13417 1
   13969    13392    13418 1
   13970    13393    13394 1
   13971    13393    13419 1
   13972    13393    13420 1
   13973    13394    13395 1
   13974    13394    13421 1
   13975    13394    13422 1
   13976    13395    13396 1
   13977    13395    13423 1
   13978    13395    13424 1
   13979    13396    13397 1
   13980    13396    13425 1
   13981    13396    13426 1
   13982    13397    13398 1
   13983    13397    13427 1
   13984    13397    13428 1
   13985    13398    13429 1
   13986    13398    13430 1
   13987    13398    13431 1
   13988    13432    13433 1
   13989    13432    13439 1
   13990    13432    13455 1
   13991    13432    13504 1
   13992    13433    13434 1
   13993    13433    13437 1
   13994    13434    13435 1
   13995    13434    13438 1
   13996    13435    13436 1
   13997    13436    13437 1
   13998    13437    13443 1
   13999    13438    13439 1
   14000    13438    13442 1
   14001    13439    13440 1
   14002    13440    13441 1
   14003    13440    13444 1
   14004    13441    13442 1
   14005    13441    13447 1
   14006    13445    13446 1
   14007    13445    13453 1
   14008    13446    13447 1
   14009    13446    13454 1
   14010    13447    13448 1
   14011    13448    13449 1
   14012    13448    13452 1
   14013    13449    13450 1
   14014    13450    13451 1
   14015    13451    13452 1
   14016    13452    13453 1
   14017    13453    13557 1
   14018    13455    13456 1
   14019    13455    13471 1
   14020    13455    13472 1
   14021    13456    13457 1
   14022    13456    13463 1
   14023    13456    13473 1
   14024    13457    13458 1
   14025    13457    13474 1
   14026    13457    13475 1
   14027    13458    13459 1
   14028    13458    13476 1
   14029    13458    13477 1
   14030    13459    13460 1
   14031    13459    13478 1
   14032    13459    13479 1
   14033    13460    13461 1
   14034    13460    13480 1
   14035    13460    13481 1
   14036    13461    13462 1
   14037    13461    13482 1
   14038    13461    13483 1
   14039    13462    13484 1
   14040    13462    13485 1
   14041    13462    13486 1
   14042    13463    13464 1
   14043    13463    13487 1
   14044    13463    13488 1
   14045    13464    13465 1
   14046    13464    13489 1
   14047    13464    13490 1
   14048    13465    13466 1
   14049    13465    13491 1
   14050    13465    13492 1
   14051    13466    13467 1
   14052    13466    13493 1
   14053    13466    13494 1
   14054    13467    13468 1
   14055    13467    13495 1
   14056    13467    13496 1
   14057    13468    13469 1
   14058    13468    13497 1
   14059    13468    13498 1
   14060    13469    13470 1
   14061    13469    13499 1
   14062    13469    13500 1
   14063    13470    13501 1
   14064    13470    13502 1
   14065    13470    13503 1
   14066    13504    13505 1
   14067    13504    13520 1
   14068    13504    13521 1
   14069    13505    13506 1
   14070    13505    13512 1
   14071    13505    13522 1
   14072    13506    13507 1
   14073    13506    13523 1
   14074    13506    13524 1
   14075    13507    13508 1
   14076    13507    13525 1
   14077    13507    13526 1
   14078    13508    13509 1
   14079    13508    13527 1
   14080    13508    13528 1
   14081    13509    13510 1
   14082    13509    13529 1
   14083    13509    13530 1
   14084    13510    13511 1
   14085    13510    13531 1
   14086    13510    13532 1
   14087    13511    13533 1
   14088    13511    13534 1
   14089    13511    13535 1
   14090    13512    13513 1
   14091    13512    13536 1
   14092    13512    13537 1
   14093    13513    13514 1
   14094    13513    13538 1
   14095    13513    13539 1
   14096    13514    13515 1
   14097    13514    13540 1
   14098    13514    13541 1
   14099    13515    13516 1
   14100    13515    13542 1
   14101    13515    13543 1
   14102    13516    13517 1
   14103    13516    13544 1
   14104    13516    13545 1
   14105    13517    13518 1
   14106    13517    13546 1
   14107    13517    13547 1
   14108    13518    13519 1
   14109    13518    13548 1
   14110    13518    13549 1
   14111    13519    13550 1
   14112    13519    13551 1
   14113    13519    13552 1
   14114    13553    13554 1
   14115    13553    13560 1
   14116    13553    13576 1
   14117    13553    13625 1
   14118    13554    13555 1
   14119    13554    13558 1
   14120    13555    13556 1
   14121    13555    13559 1
   14122    13556    13557 1
   14123    13557    13558 1
   14124    13558    13564 1
   14125    13559    13560 1
   14126    13559    13563 1
   14127    13560    13561 1
   14128    13561    13562 1
   14129    13561    13565 1
   14130    13562    13563 1
   14131    13562    13568 1
   14132    13566    13567 1
   14133    13566    13574 1
   14134    13567    13568 1
   14135    13567    13575 1
   14136    13568    13569 1
   14137    13569    13570 1
   14138    13569    13573 1
   14139    13570    13571 1
   14140    13571    13572 1
   14141    13572    13573 1
   14142    13573    13574 1
   14143    13574    13678 1
   14144    13576    13577 1
   14145    13576    13592 1
   14146    13576    13593 1
   14147    13577    13578 1
   14148    13577    13584 1
   14149    13577    13594 1
   14150    13578    13579 1
   14151    13578    13595 1
   14152    13578    13596 1
   14153    13579    13580 1
   14154    13579    13597 1
   14155    13579    13598 1
   14156    13580    13581 1
   14157    13580    13599 1
   14158    13580    13600 1
   14159    13581    13582 1
   14160    13581    13601 1
   14161    13581    13602 1
   14162    13582    13583 1
   14163    13582    13603 1
   14164    13582    13604 1
   14165    13583    13605 1
   14166    13583    13606 1
   14167    13583    13607 1
   14168    13584    13585 1
   14169    13584    13608 1
   14170    13584    13609 1
   14171    13585    13586 1
   14172    13585    13610 1
   14173    13585    13611 1
   14174    13586    13587 1
   14175    13586    13612 1
   14176    13586    13613 1
   14177    13587    13588 1
   14178    13587    13614 1
   14179    13587    13615 1
   14180    13588    13589 1
   14181    13588    13616 1
   14182    13588    13617 1
   14183    13589    13590 1
   14184    13589    13618 1
   14185    13589    13619 1
   14186    13590    13591 1
   14187    13590    13620 1
   14188    13590    13621 1
   14189    13591    13622 1
   14190    13591    13623 1
   14191    13591    13624 1
   14192    13625    13626 1
   14193    13625    13641 1
   14194    13625    13642 1
   14195    13626    13627 1
   14196    13626    13633 1
   14197    13626    13643 1
   14198    13627    13628 1
   14199    13627    13644 1
   14200    13627    13645 1
   14201    13628    13629 1
   14202    13628    13646 1
   14203    13628    13647 1
   14204    13629    13630 1
   14205    13629    13648 1
   14206    13629    13649 1
   14207    13630    13631 1
   14208    13630    13650 1
   14209    13630    13651 1
   14210    13631    13632 1
   14211    13631    13652 1
   14212    13631    13653 1
   14213    13632    13654 1
   14214    13632    13655 1
   14215    13632    13656 1
   14216    13633    13634 1
   14217    13633    13657 1
   14218    13633    13658 1
   14219    13634    13635 1
   14220    13634    13659 1
   14221    13634    13660 1
   14222    13635    13636 1
   14223    13635    13661 1
   14224    13635    13662 1
   14225    13636    13637 1
   14226    13636    13663 1
   14227    13636    13664 1
   14228    13637    13638 1
   14229    13637    13665 1
   14230    13637    13666 1
   14231    13638    13639 1
   14232    13638    13667 1
   14233    13638    13668 1
   14234    13639    13640 1
   14235    13639    13669 1
   14236    13639    13670 1
   14237    13640    13671 1
   14238    13640    13672 1
   14239    13640    13673 1
   14240    13674    13675 1
   14241    13674    13681 1
   14242    13674    13697 1
   14243    13674    13746 1
   14244    13675    13676 1
   14245    13675    13679 1
   14246    13676    13677 1
   14247    13676    13680 1
   14248    13677    13678 1
   14249    13678    13679 1
   14250    13679    13685 1
   14251    13680    13681 1
   14252    13680    13684 1
   14253    13681    13682 1
   14254    13682    13683 1
   14255    13682    13686 1
   14256    13683    13684 1
   14257    13683    13689 1
   14258    13687    13688 1
   14259    13687    13695 1
   14260    13688    13689 1
   14261    13688    13696 1
   14262    13689    13690 1
   14263    13690    13691 1
   14264    13690    13694 1
   14265    13691    13692 1
   14266    13692    13693 1
   14267    13693    13694 1
   14268    13694    13695 1
   14269    13695    13799 1
   14270    13697    13698 1
   14271    13697    13713 1
   14272    13697    13714 1
   14273    13698    13699 1
   14274    13698    13705 1
   14275    13698    13715 1
   14276    13699    13700 1
   14277    13699    13716 1
   14278    13699    13717 1
   14279    13700    13701 1
   14280    13700    13718 1
   14281    13700    13719 1
   14282    13701    13702 1
   14283    13701    13720 1
   14284    13701    13721 1
   14285    13702    13703 1
   14286    13702    13722 1
   14287    13702    13723 1
   14288    13703    13704 1
   14289    13703    13724 1
   14290    13703    13725 1
   14291    13704    13726 1
   14292    13704    13727 1
   14293    13704    13728 1
   14294    13705    13706 1
   14295    13705    13729 1
   14296    13705    13730 1
   14297    13706    13707 1
   14298    13706    13731 1
   14299    13706    13732 1
   14300    13707    13708 1
   14301    13707    13733 1
   14302    13707    13734 1
   14303    13708    13709 1
   14304    13708    13735 1
   14305    13708    13736 1
   14306    13709    13710 1
   14307    13709    13737 1
   14308    13709    13738 1
   14309    13710    13711 1
   14310    13710    13739 1
   14311    13710    13740 1
   14312    13711    13712 1
   14313    13711    13741 1
   14314    13711    13742 1
   14315    13712    13743 1
   14316    13712    13744 1
   14317    13712    13745 1
   14318    13746    13747 1
   14319    13746    13762 1
   14320    13746    13763 1
   14321    13747    13748 1
   14322    13747    13754 1
   14323    13747    13764 1
   14324    13748    13749 1
   14325    13748    13765 1
   14326    13748    13766 1
   14327    13749    13750 1
   14328    13749    13767 1
   14329    13749    13768 1
   14330    13750    13751 1
   14331    13750    13769 1
   14332    13750    13770 1
   14333    13751    13752 1
   14334    13751    13771 1
   14335    13751    13772 1
   14336    13752    13753 1
   14337    13752    13773 1
   14338    13752    13774 1
   14339    13753    13775 1
   14340    13753    13776 1
   14341    13753    13777 1
   14342    13754    13755 1
   14343    13754    13778 1
   14344    13754    13779 1
   14345    13755    13756 1
   14346    13755    13780 1
   14347    13755    13781 1
   14348    13756    13757 1
   14349    13756    13782 1
   14350    13756    13783 1
   14351    13757    13758 1
   14352    13757    13784 1
   14353    13757    13785 1
   14354    13758    13759 1
   14355    13758    13786 1
   14356    13758    13787 1
   14357    13759    13760 1
   14358    13759    13788 1
   14359    13759    13789 1
   14360    13760    13761 1
   14361    13760    13790 1
   14362    13760    13791 1
   14363    13761    13792 1
   14364    13761    13793 1
   14365    13761    13794 1
   14366    13795    13796 1
   14367    13795    13802 1
   14368    13795    13818 1
   14369    13795    13867 1
   14370    13796    13797 1
   14371    13796    13800 1
   14372    13797    13798 1
   14373    13797    13801 1
   14374    13798    13799 1
   14375    13799    13800 1
   14376    13800    13806 1
   14377    13801    13802 1
   14378    13801    13805 1
   14379    13802    13803 1
   14380    13803    13804 1
   14381    13803    13807 1
   14382    13804    13805 1
   14383    13804    13810 1
   14384    13808    13809 1
   14385    13808    13816 1
   14386    13809    13810 1
   14387    13809    13817 1
   14388    13810    13811 1
   14389    13811    13812 1
   14390    13811    13815 1
   14391    13812    13813 1
   14392    13813    13814 1
   14393    13814    13815 1
   14394    13815    13816 1
   14395    13816    13920 1
   14396    13818    13819 1
   14397    13818    13834 1
   14398    13818    13835 1
   14399    13819    13820 1
   14400    13819    13826 1
   14401    13819    13836 1
   14402    13820    13821 1
   14403    13820    13837 1
   14404    13820    13838 1
   14405    13821    13822 1
   14406    13821    13839 1
   14407    13821    13840 1
   14408    13822    13823 1
   14409    13822    13841 1
   14410    13822    13842 1
   14411    13823    13824 1
   14412    13823    13843 1
   14413    13823    13844 1
   14414    13824    13825 1
   14415    13824    13845 1
   14416    13824    13846 1
   14417    13825    13847 1
   14418    13825    13848 1
   14419    13825    13849 1
   14420    13826    13827 1
   14421    13826    13850 1
   14422    13826    13851 1
   14423    13827    13828 1
   14424    13827    13852 1
   14425    13827    13853 1
   14426    13828    13829 1
   14427    13828    13854 1
   14428    13828    13855 1
   14429    13829    13830 1
   14430    13829    13856 1
   14431    13829    13857 1
   14432    13830    13831 1
   14433    13830    13858 1
   14434    13830    13859 1
   14435    13831    13832 1
   14436    13831    13860 1
   14437    13831    13861 1
   14438    13832    13833 1
   14439    13832    13862 1
   14440    13832    13863 1
   14441    13833    13864 1
   14442    13833    13865 1
   14443    13833    13866 1
   14444    13867    13868 1
   14445    13867    13883 1
   14446    13867    13884 1
   14447    13868    13869 1
   14448    13868    13875 1
   14449    13868    13885 1
   14450    13869    13870 1
   14451    13869    13886 1
   14452    13869    13887 1
   14453    13870    13871 1
   14454    13870    13888 1
   14455    13870    13889 1
   14456    13871    13872 1
   14457    13871    13890 1
   14458    13871    13891 1
   14459    13872    13873 1
   14460    13872    13892 1
   14461    13872    13893 1
   14462    13873    13874 1
   14463    13873    13894 1
   14464    13873    13895 1
   14465    13874    13896 1
   14466    13874    13897 1
   14467    13874    13898 1
   14468    13875    13876 1
   14469    13875    13899 1
   14470    13875    13900 1
   14471    13876    13877 1
   14472    13876    13901 1
   14473    13876    13902 1
   14474    13877    13878 1
   14475    13877    13903 1
   14476    13877    13904 1
   14477    13878    13879 1
   14478    13878    13905 1
   14479    13878    13906 1
   14480    13879    13880 1
   14481    13879    13907 1
   14482    13879    13908 1
   14483    13880    13881 1
   14484    13880    13909 1
   14485    13880    13910 1
   14486    13881    13882 1
   14487    13881    13911 1
   14488    13881    13912 1
   14489    13882    13913 1
   14490    13882    13914 1
   14491    13882    13915 1
   14492    13916    13917 1
   14493    13916    13923 1
   14494    13916    13939 1
   14495    13916    13988 1
   14496    13917    13918 1
   14497    13917    13921 1
   14498    13918    13919 1
   14499    13918    13922 1
   14500    13919    13920 1
   14501    13920    13921 1
   14502    13921    13927 1
   14503    13922    13923 1
   14504    13922    13926 1
   14505    13923    13924 1
   14506    13924    13925 1
   14507    13924    13928 1
   14508    13925    13926 1
   14509    13925    13931 1
   14510    13929    13930 1
   14511    13929    13937 1
   14512    13930    13931 1
   14513    13930    13938 1
   14514    13931    13932 1
   14515    13932    13933 1
   14516    13932    13936 1
   14517    13933    13934 1
   14518    13934    13935 1
   14519    13935    13936 1
   14520    13936    13937 1
   14521    13937    14041 1
   14522    13939    13940 1
   14523    13939    13955 1
   14524    13939    13956 1
   14525    13940    13941 1
   14526    13940    13947 1
   14527    13940    13957 1
   14528    13941    13942 1
   14529    13941    13958 1
   14530    13941    13959 1
   14531    13942    13943 1
   14532    13942    13960 1
   14533    13942    13961 1
   14534    13943    13944 1
   14535    13943    13962 1
   14536    13943    13963 1
   14537    13944    13945 1
   14538    13944    13964 1
   14539    13944    13965 1
   14540    13945    13946 1
   14541    13945    13966 1
   14542    13945    13967 1
   14543    13946    13968 1
   14544    13946    13969 1
   14545    13946    13970 1
   14546    13947    13948 1
   14547    13947    13971 1
   14548    13947    13972 1
   14549    13948    13949 1
   14550    13948    13973 1
   14551    13948    13974 1
   14552    13949    13950 1
   14553    13949    13975 1
   14554    13949    13976 1
   14555    13950    13951 1
   14556    13950    13977 1
   14557    13950    13978 1
   14558    13951    13952 1
   14559    13951    13979 1
   14560    13951    13980 1
   14561    13952    13953 1
   14562    13952    13981 1
   14563    13952    13982 1
   14564    13953    13954 1
   14565    13953    13983 1
   14566    13953    13984 1
   14567    13954    13985 1
   14568    13954    13986 1
   14569    13954    13987 1
   14570    13988    13989 1
   14571    13988    14004 1
   14572    13988    14005 1
   14573    13989    13990 1
   14574    13989    13996 1
   14575    13989    14006 1
   14576    13990    13991 1
   14577    13990    14007 1
   14578    13990    14008 1
   14579    13991    13992 1
   14580    13991    14009 1
   14581    13991    14010 1
   14582    13992    13993 1
   14583    13992    14011 1
   14584    13992    14012 1
   14585    13993    13994 1
   14586    13993    14013 1
   14587    13993    14014 1
   14588    13994    13995 1
   14589    13994    14015 1
   14590    13994    14016 1
   14591    13995    14017 1
   14592    13995    14018 1
   14593    13995    14019 1
   14594    13996    13997 1
   14595    13996    14020 1
   14596    13996    14021 1
   14597    13997    13998 1
   14598    13997    14022 1
   14599    13997    14023 1
   14600    13998    13999 1
   14601    13998    14024 1
   14602    13998    14025 1
   14603    13999    14000 1
   14604    13999    14026 1
   14605    13999    14027 1
   14606    14000    14001 1
   14607    14000    14028 1
   14608    14000    14029 1
   14609    14001    14002 1
   14610    14001    14030 1
   14611    14001    14031 1
   14612    14002    14003 1
   14613    14002    14032 1
   14614    14002    14033 1
   14615    14003    14034 1
   14616    14003    14035 1
   14617    14003    14036 1
   14618    14037    14038 1
   14619    14037    14044 1
   14620    14037    14060 1
   14621    14037    14109 1
   14622    14038    14039 1
   14623    14038    14042 1
   14624    14039    14040 1
   14625    14039    14043 1
   14626    14040    14041 1
   14627    14041    14042 1
   14628    14042    14048 1
   14629    14043    14044 1
   14630    14043    14047 1
   14631    14044    14045 1
   14632    14045    14046 1
   14633    14045    14049 1
   14634    14046    14047 1
   14635    14046    14052 1
   14636    14050    14051 1
   14637    14050    14058 1
   14638    14051    14052 1
   14639    14051    14059 1
   14640    14052    14053 1
   14641    14053    14054 1
   14642    14053    14057 1
   14643    14054    14055 1
   14644    14055    14056 1
   14645    14056    14057 1
   14646    14057    14058 1
   14647    14058    14162 1
   14648    14060    14061 1
   14649    14060    14076 1
   14650    14060    14077 1
   14651    14061    14062 1
   14652    14061    14068 1
   14653    14061    14078 1
   14654    14062    14063 1
   14655    14062    14079 1
   14656    14062    14080 1
   14657    14063    14064 1
   14658    14063    14081 1
   14659    14063    14082 1
   14660    14064    14065 1
   14661    14064    14083 1
   14662    14064    14084 1
   14663    14065    14066 1
   14664    14065    14085 1
   14665    14065    14086 1
   14666    14066    14067 1
   14667    14066    14087 1
   14668    14066    14088 1
   14669    14067    14089 1
   14670    14067    14090 1
   14671    14067    14091 1
   14672    14068    14069 1
   14673    14068    14092 1
   14674    14068    14093 1
   14675    14069    14070 1
   14676    14069    14094 1
   14677    14069    14095 1
   14678    14070    14071 1
   14679    14070    14096 1
   14680    14070    14097 1
   14681    14071    14072 1
   14682    14071    14098 1
   14683    14071    14099 1
   14684    14072    14073 1
   14685    14072    14100 1
   14686    14072    14101 1
   14687    14073    14074 1
   14688    14073    14102 1
   14689    14073    14103 1
   14690    14074    14075 1
   14691    14074    14104 1
   14692    14074    14105 1
   14693    14075    14106 1
   14694    14075    14107 1
   14695    14075    14108 1
   14696    14109    14110 1
   14697    14109    14125 1
   14698    14109    14126 1
   14699    14110    14111 1
   14700    14110    14117 1
   14701    14110    14127 1
   14702    14111    14112 1
   14703    14111    14128 1
   14704    14111    14129 1
   14705    14112    14113 1
   14706    14112    14130 1
   14707    14112    14131 1
   14708    14113    14114 1
   14709    14113    14132 1
   14710    14113    14133 1
   14711    14114    14115 1
   14712    14114    14134 1
   14713    14114    14135 1
   14714    14115    14116 1
   14715    14115    14136 1
   14716    14115    14137 1
   14717    14116    14138 1
   14718    14116    14139 1
   14719    14116    14140 1
   14720    14117    14118 1
   14721    14117    14141 1
   14722    14117    14142 1
   14723    14118    14119 1
   14724    14118    14143 1
   14725    14118    14144 1
   14726    14119    14120 1
   14727    14119    14145 1
   14728    14119    14146 1
   14729    14120    14121 1
   14730    14120    14147 1
   14731    14120    14148 1
   14732    14121    14122 1
   14733    14121    14149 1
   14734    14121    14150 1
   14735    14122    14123 1
   14736    14122    14151 1
   14737    14122    14152 1
   14738    14123    14124 1
   14739    14123    14153 1
   14740    14123    14154 1
   14741    14124    14155 1
   14742    14124    14156 1
   14743    14124    14157 1
   14744    14158    14159 1
   14745    14158    14165 1
   14746    14158    14181 1
   14747    14158    14230 1
   14748    14159    14160 1
   14749    14159    14163 1
   14750    14160    14161 1
   14751    14160    14164 1
   14752    14161    14162 1
   14753    14162    14163 1
   14754    14163    14169 1
   14755    14164    14165 1
   14756    14164    14168 1
   14757    14165    14166 1
   14758    14166    14167 1
   14759    14166    14170 1
   14760    14167    14168 1
   14761    14167    14173 1
   14762    14171    14172 1
   14763    14171    14179 1
   14764    14172    14173 1
   14765    14172    14180 1
   14766    14173    14174 1
   14767    14174    14175 1
   14768    14174    14178 1
   14769    14175    14176 1
   14770    14176    14177 1
   14771    14177    14178 1
   14772    14178    14179 1
   14773    14179    14283 1
   14774    14181    14182 1
   14775    14181    14197 1
   14776    14181    14198 1
   14777    14182    14183 1
   14778    14182    14189 1
   14779    14182    14199 1
   14780    14183    14184 1
   14781    14183    14200 1
   14782    14183    14201 1
   14783    14184    14185 1
   14784    14184    14202 1
   14785    14184    14203 1
   14786    14185    14186 1
   14787    14185    14204 1
   14788    14185    14205 1
   14789    14186    14187 1
   14790    14186    14206 1
   14791    14186    14207 1
   14792    14187    14188 1
   14793    14187    14208 1
   14794    14187    14209 1
   14795    14188    14210 1
   14796    14188    14211 1
   14797    14188    14212 1
   14798    14189    14190 1
   14799    14189    14213 1
   14800    14189    14214 1
   14801    14190    14191 1
   14802    14190    14215 1
   14803    14190    14216 1
   14804    14191    14192 1
   14805    14191    14217 1
   14806    14191    14218 1
   14807    14192    14193 1
   14808    14192    14219 1
   14809    14192    14220 1
   14810    14193    14194 1
   14811    14193    14221 1
   14812    14193    14222 1
   14813    14194    14195 1
   14814    14194    14223 1
   14815    14194    14224 1
   14816    14195    14196 1
   14817    14195    14225 1
   14818    14195    14226 1
   14819    14196    14227 1
   14820    14196    14228 1
   14821    14196    14229 1
   14822    14230    14231 1
   14823    14230    14246 1
   14824    14230    14247 1
   14825    14231    14232 1
   14826    14231    14238 1
   14827    14231    14248 1
   14828    14232    14233 1
   14829    14232    14249 1
   14830    14232    14250 1
   14831    14233    14234 1
   14832    14233    14251 1
   14833    14233    14252 1
   14834    14234    14235 1
   14835    14234    14253 1
   14836    14234    14254 1
   14837    14235    14236 1
   14838    14235    14255 1
   14839    14235    14256 1
   14840    14236    14237 1
   14841    14236    14257 1
   14842    14236    14258 1
   14843    14237    14259 1
   14844    14237    14260 1
   14845    14237    14261 1
   14846    14238    14239 1
   14847    14238    14262 1
   14848    14238    14263 1
   14849    14239    14240 1
   14850    14239    14264 1
   14851    14239    14265 1
   14852    14240    14241 1
   14853    14240    14266 1
   14854    14240    14267 1
   14855    14241    14242 1
   14856    14241    14268 1
   14857    14241    14269 1
   14858    14242    14243 1
   14859    14242    14270 1
   14860    14242    14271 1
   14861    14243    14244 1
   14862    14243    14272 1
   14863    14243    14273 1
   14864    14244    14245 1
   14865    14244    14274 1
   14866    14244    14275 1
   14867    14245    14276 1
   14868    14245    14277 1
   14869    14245    14278 1
   14870    14279    14280 1
   14871    14279    14286 1
   14872    14279    14302 1
   14873    14279    14351 1
   14874    14280    14281 1
   14875    14280    14284 1
   14876    14281    14282 1
   14877    14281    14285 1
   14878    14282    14283 1
   14879    14283    14284 1
   14880    14284    14290 1
   14881    14285    14286 1
   14882    14285    14289 1
   14883    14286    14287 1
   14884    14287    14288 1
   14885    14287    14291 1
   14886    14288    14289 1
   14887    14288    14294 1
   14888    14292    14293 1
   14889    14292    14300 1
   14890    14293    14294 1
   14891    14293    14301 1
   14892    14294    14295 1
   14893    14295    14296 1
   14894    14295    14299 1
   14895    14296    14297 1
   14896    14297    14298 1
   14897    14298    14299 1
   14898    14299    14300 1
   14899    14300    14404 1
   14900    14302    14303 1
   14901    14302    14318 1
   14902    14302    14319 1
   14903    14303    14304 1
   14904    14303    14310 1
   14905    14303    14320 1
   14906    14304    14305 1
   14907    14304    14321 1
   14908    14304    14322 1
   14909    14305    14306 1
   14910    14305    14323 1
   14911    14305    14324 1
   14912    14306    14307 1
   14913    14306    14325 1
   14914    14306    14326 1
   14915    14307    14308 1
   14916    14307    14327 1
   14917    14307    14328 1
   14918    14308    14309 1
   14919    14308    14329 1
   14920    14308    14330 1
   14921    14309    14331 1
   14922    14309    14332 1
   14923    14309    14333 1
   14924    14310    14311 1
   14925    14310    14334 1
   14926    14310    14335 1
   14927    14311    14312 1
   14928    14311    14336 1
   14929    14311    14337 1
   14930    14312    14313 1
   14931    14312    14338 1
   14932    14312    14339 1
   14933    14313    14314 1
   14934    14313    14340 1
   14935    14313    14341 1
   14936    14314    14315 1
   14937    14314    14342 1
   14938    14314    14343 1
   14939    14315    14316 1
   14940    14315    14344 1
   14941    14315    14345 1
   14942    14316    14317 1
   14943    14316    14346 1
   14944    14316    14347 1
   14945    14317    14348 1
   14946    14317    14349 1
   14947    14317    14350 1
   14948    14351    14352 1
   14949    14351    14367 1
   14950    14351    14368 1
   14951    14352    14353 1
   14952    14352    14359 1
   14953    14352    14369 1
   14954    14353    14354 1
   14955    14353    14370 1
   14956    14353    14371 1
   14957    14354    14355 1
   14958    14354    14372 1
   14959    14354    14373 1
   14960    14355    14356 1
   14961    14355    14374 1
   14962    14355    14375 1
   14963    14356    14357 1
   14964    14356    14376 1
   14965    14356    14377 1
   14966    14357    14358 1
   14967    14357    14378 1
   14968    14357    14379 1
   14969    14358    14380 1
   14970    14358    14381 1
   14971    14358    14382 1
   14972    14359    14360 1
   14973    14359    14383 1
   14974    14359    14384 1
   14975    14360    14361 1
   14976    14360    14385 1
   14977    14360    14386 1
   14978    14361    14362 1
   14979    14361    14387 1
   14980    14361    14388 1
   14981    14362    14363 1
   14982    14362    14389 1
   14983    14362    14390 1
   14984    14363    14364 1
   14985    14363    14391 1
   14986    14363    14392 1
   14987    14364    14365 1
   14988    14364    14393 1
   14989    14364    14394 1
   14990    14365    14366 1
   14991    14365    14395 1
   14992    14365    14396 1
   14993    14366    14397 1
   14994    14366    14398 1
   14995    14366    14399 1
   14996    14400    14401 1
   14997    14400    14407 1
   14998    14400    14423 1
   14999    14400    14472 1
   15000    14401    14402 1
   15001    14401    14405 1
   15002    14402    14403 1
   15003    14402    14406 1
   15004    14403    14404 1
   15005    14404    14405 1
   15006    14405    14411 1
   15007    14406    14407 1
   15008    14406    14410 1
   15009    14407    14408 1
   15010    14408    14409 1
   15011    14408    14412 1
   15012    14409    14410 1
   15013    14409    14415 1
   15014    14413    14414 1
   15015    14413    14421 1
   15016    14414    14415 1
   15017    14414    14422 1
   15018    14415    14416 1
   15019    14416    14417 1
   15020    14416    14420 1
   15021    14417    14418 1
   15022    14418    14419 1
   15023    14419    14420 1
   15024    14420    14421 1
   15025    14421    14525 1
   15026    14423    14424 1
   15027    14423    14439 1
   15028    14423    14440 1
   15029    14424    14425 1
   15030    14424    14431 1
   15031    14424    14441 1
   15032    14425    14426 1
   15033    14425    14442 1
   15034    14425    14443 1
   15035    14426    14427 1
   15036    14426    14444 1
   15037    14426    14445 1
   15038    14427    14428 1
   15039    14427    14446 1
   15040    14427    14447 1
   15041    14428    14429 1
   15042    14428    14448 1
   15043    14428    14449 1
   15044    14429    14430 1
   15045    14429    14450 1
   15046    14429    14451 1
   15047    14430    14452 1
   15048    14430    14453 1
   15049    14430    14454 1
   15050    14431    14432 1
   15051    14431    14455 1
   15052    14431    14456 1
   15053    14432    14433 1
   15054    14432    14457 1
   15055    14432    14458 1
   15056    14433    14434 1
   15057    14433    14459 1
   15058    14433    14460 1
   15059    14434    14435 1
   15060    14434    14461 1
   15061    14434    14462 1
   15062    14435    14436 1
   15063    14435    14463 1
   15064    14435    14464 1
   15065    14436    14437 1
   15066    14436    14465 1
   15067    14436    14466 1
   15068    14437    14438 1
   15069    14437    14467 1
   15070    14437    14468 1
   15071    14438    14469 1
   15072    14438    14470 1
   15073    14438    14471 1
   15074    14472    14473 1
   15075    14472    14488 1
   15076    14472    14489 1
   15077    14473    14474 1
   15078    14473    14480 1
   15079    14473    14490 1
   15080    14474    14475 1
   15081    14474    14491 1
   15082    14474    14492 1
   15083    14475    14476 1
   15084    14475    14493 1
   15085    14475    14494 1
   15086    14476    14477 1
   15087    14476    14495 1
   15088    14476    14496 1
   15089    14477    14478 1
   15090    14477    14497 1
   15091    14477    14498 1
   15092    14478    14479 1
   15093    14478    14499 1
   15094    14478    14500 1
   15095    14479    14501 1
   15096    14479    14502 1
   15097    14479    14503 1
   15098    14480    14481 1
   15099    14480    14504 1
   15100    14480    14505 1
   15101    14481    14482 1
   15102    14481    14506 1
   15103    14481    14507 1
   15104    14482    14483 1
   15105    14482    14508 1
   15106    14482    14509 1
   15107    14483    14484 1
   15108    14483    14510 1
   15109    14483    14511 1
   15110    14484    14485 1
   15111    14484    14512 1
   15112    14484    14513 1
   15113    14485    14486 1
   15114    14485    14514 1
   15115    14485    14515 1
   15116    14486    14487 1
   15117    14486    14516 1
   15118    14486    14517 1
   15119    14487    14518 1
   15120    14487    14519 1
   15121    14487    14520 1
   15122    14521    14522 1
   15123    14521    14528 1
   15124    14521    14544 1
   15125    14521    14593 1
   15126    14522    14523 1
   15127    14522    14526 1
   15128    14523    14524 1
   15129    14523    14527 1
   15130    14524    14525 1
   15131    14525    14526 1
   15132    14526    14532 1
   15133    14527    14528 1
   15134    14527    14531 1
   15135    14528    14529 1
   15136    14529    14530 1
   15137    14529    14533 1
   15138    14530    14531 1
   15139    14530    14536 1
   15140    14534    14535 1
   15141    14534    14542 1
   15142    14535    14536 1
   15143    14535    14543 1
   15144    14536    14537 1
   15145    14537    14538 1
   15146    14537    14541 1
   15147    14538    14539 1
   15148    14539    14540 1
   15149    14540    14541 1
   15150    14541    14542 1
   15151    14542    14646 1
   15152    14544    14545 1
   15153    14544    14560 1
   15154    14544    14561 1
   15155    14545    14546 1
   15156    14545    14552 1
   15157    14545    14562 1
   15158    14546    14547 1
   15159    14546    14563 1
   15160    14546    14564 1
   15161    14547    14548 1
   15162    14547    14565 1
   15163    14547    14566 1
   15164    14548    14549 1
   15165    14548    14567 1
   15166    14548    14568 1
   15167    14549    14550 1
   15168    14549    14569 1
   15169    14549    14570 1
   15170    14550    14551 1
   15171    14550    14571 1
   15172    14550    14572 1
   15173    14551    14573 1
   15174    14551    14574 1
   15175    14551    14575 1
   15176    14552    14553 1
   15177    14552    14576 1
   15178    14552    14577 1
   15179    14553    14554 1
   15180    14553    14578 1
   15181    14553    14579 1
   15182    14554    14555 1
   15183    14554    14580 1
   15184    14554    14581 1
   15185    14555    14556 1
   15186    14555    14582 1
   15187    14555    14583 1
   15188    14556    14557 1
   15189    14556    14584 1
   15190    14556    14585 1
   15191    14557    14558 1
   15192    14557    14586 1
   15193    14557    14587 1
   15194    14558    14559 1
   15195    14558    14588 1
   15196    14558    14589 1
   15197    14559    14590 1
   15198    14559    14591 1
   15199    14559    14592 1
   15200    14593    14594 1
   15201    14593    14609 1
   15202    14593    14610 1
   15203    14594    14595 1
   15204    14594    14601 1
   15205    14594    14611 1
   15206    14595    14596 1
   15207    14595    14612 1
   15208    14595    14613 1
   15209    14596    14597 1
   15210    14596    14614 1
   15211    14596    14615 1
   15212    14597    14598 1
   15213    14597    14616 1
   15214    14597    14617 1
   15215    14598    14599 1
   15216    14598    14618 1
   15217    14598    14619 1
   15218    14599    14600 1
   15219    14599    14620 1
   15220    14599    14621 1
   15221    14600    14622 1
   15222    14600    14623 1
   15223    14600    14624 1
   15224    14601    14602 1
   15225    14601    14625 1
   15226    14601    14626 1
   15227    14602    14603 1
   15228    14602    14627 1
   15229    14602    14628 1
   15230    14603    14604 1
   15231    14603    14629 1
   15232    14603    14630 1
   15233    14604    14605 1
   15234    14604    14631 1
   15235    14604    14632 1
   15236    14605    14606 1
   15237    14605    14633 1
   15238    14605    14634 1
   15239    14606    14607 1
   15240    14606    14635 1
   15241    14606    14636 1
   15242    14607    14608 1
   15243    14607    14637 1
   15244    14607    14638 1
   15245    14608    14639 1
   15246    14608    14640 1
   15247    14608    14641 1
   15248    14642    14643 1
   15249    14642    14649 1
   15250    14642    14665 1
   15251    14642    14714 1
   15252    14643    14644 1
   15253    14643    14647 1
   15254    14644    14645 1
   15255    14644    14648 1
   15256    14645    14646 1
   15257    14646    14647 1
   15258    14647    14653 1
   15259    14648    14649 1
   15260    14648    14652 1
   15261    14649    14650 1
   15262    14650    14651 1
   15263    14650    14654 1
   15264    14651    14652 1
   15265    14651    14657 1
   15266    14655    14656 1
   15267    14655    14663 1
   15268    14656    14657 1
   15269    14656    14664 1
   15270    14657    14658 1
   15271    14658    14659 1
   15272    14658    14662 1
   15273    14659    14660 1
   15274    14660    14661 1
   15275    14661    14662 1
   15276    14662    14663 1
   15277    14663    14767 1
   15278    14665    14666 1
   15279    14665    14681 1
   15280    14665    14682 1
   15281    14666    14667 1
   15282    14666    14673 1
   15283    14666    14683 1
   15284    14667    14668 1
   15285    14667    14684 1
   15286    14667    14685 1
   15287    14668    14669 1
   15288    14668    14686 1
   15289    14668    14687 1
   15290    14669    14670 1
   15291    14669    14688 1
   15292    14669    14689 1
   15293    14670    14671 1
   15294    14670    14690 1
   15295    14670    14691 1
   15296    14671    14672 1
   15297    14671    14692 1
   15298    14671    14693 1
   15299    14672    14694 1
   15300    14672    14695 1
   15301    14672    14696 1
   15302    14673    14674 1
   15303    14673    14697 1
   15304    14673    14698 1
   15305    14674    14675 1
   15306    14674    14699 1
   15307    14674    14700 1
   15308    14675    14676 1
   15309    14675    14701 1
   15310    14675    14702 1
   15311    14676    14677 1
   15312    14676    14703 1
   15313    14676    14704 1
   15314    14677    14678 1
   15315    14677    14705 1
   15316    14677    14706 1
   15317    14678    14679 1
   15318    14678    14707 1
   15319    14678    14708 1
   15320    14679    14680 1
   15321    14679    14709 1
   15322    14679    14710 1
   15323    14680    14711 1
   15324    14680    14712 1
   15325    14680    14713 1
   15326    14714    14715 1
   15327    14714    14730 1
   15328    14714    14731 1
   15329    14715    14716 1
   15330    14715    14722 1
   15331    14715    14732 1
   15332    14716    14717 1
   15333    14716    14733 1
   15334    14716    14734 1
   15335    14717    14718 1
   15336    14717    14735 1
   15337    14717    14736 1
   15338    14718    14719 1
   15339    14718    14737 1
   15340    14718    14738 1
   15341    14719    14720 1
   15342    14719    14739 1
   15343    14719    14740 1
   15344    14720    14721 1
   15345    14720    14741 1
   15346    14720    14742 1
   15347    14721    14743 1
   15348    14721    14744 1
   15349    14721    14745 1
   15350    14722    14723 1
   15351    14722    14746 1
   15352    14722    14747 1
   15353    14723    14724 1
   15354    14723    14748 1
   15355    14723    14749 1
   15356    14724    14725 1
   15357    14724    14750 1
   15358    14724    14751 1
   15359    14725    14726 1
   15360    14725    14752 1
   15361    14725    14753 1
   15362    14726    14727 1
   15363    14726    14754 1
   15364    14726    14755 1
   15365    14727    14728 1
   15366    14727    14756 1
   15367    14727    14757 1
   15368    14728    14729 1
   15369    14728    14758 1
   15370    14728    14759 1
   15371    14729    14760 1
   15372    14729    14761 1
   15373    14729    14762 1
   15374    14763    14764 1
   15375    14763    14770 1
   15376    14763    14786 1
   15377    14763    14835 1
   15378    14764    14765 1
   15379    14764    14768 1
   15380    14765    14766 1
   15381    14765    14769 1
   15382    14766    14767 1
   15383    14767    14768 1
   15384    14768    14774 1
   15385    14769    14770 1
   15386    14769    14773 1
   15387    14770    14771 1
   15388    14771    14772 1
   15389    14771    14775 1
   15390    14772    14773 1
   15391    14772    14778 1
   15392    14776    14777 1
   15393    14776    14784 1
   15394    14777    14778 1
   15395    14777    14785 1
   15396    14778    14779 1
   15397    14779    14780 1
   15398    14779    14783 1
   15399    14780    14781 1
   15400    14781    14782 1
   15401    14782    14783 1
   15402    14783    14784 1
   15403    14784    14888 1
   15404    14786    14787 1
   15405    14786    14802 1
   15406    14786    14803 1
   15407    14787    14788 1
   15408    14787    14794 1
   15409    14787    14804 1
   15410    14788    14789 1
   15411    14788    14805 1
   15412    14788    14806 1
   15413    14789    14790 1
   15414    14789    14807 1
   15415    14789    14808 1
   15416    14790    14791 1
   15417    14790    14809 1
   15418    14790    14810 1
   15419    14791    14792 1
   15420    14791    14811 1
   15421    14791    14812 1
   15422    14792    14793 1
   15423    14792    14813 1
   15424    14792    14814 1
   15425    14793    14815 1
   15426    14793    14816 1
   15427    14793    14817 1
   15428    14794    14795 1
   15429    14794    14818 1
   15430    14794    14819 1
   15431    14795    14796 1
   15432    14795    14820 1
   15433    14795    14821 1
   15434    14796    14797 1
   15435    14796    14822 1
   15436    14796    14823 1
   15437    14797    14798 1
   15438    14797    14824 1
   15439    14797    14825 1
   15440    14798    14799 1
   15441    14798    14826 1
   15442    14798    14827 1
   15443    14799    14800 1
   15444    14799    14828 1
   15445    14799    14829 1
   15446    14800    14801 1
   15447    14800    14830 1
   15448    14800    14831 1
   15449    14801    14832 1
   15450    14801    14833 1
   15451    14801    14834 1
   15452    14835    14836 1
   15453    14835    14851 1
   15454    14835    14852 1
   15455    14836    14837 1
   15456    14836    14843 1
   15457    14836    14853 1
   15458    14837    14838 1
   15459    14837    14854 1
   15460    14837    14855 1
   15461    14838    14839 1
   15462    14838    14856 1
   15463    14838    14857 1
   15464    14839    14840 1
   15465    14839    14858 1
   15466    14839    14859 1
   15467    14840    14841 1
   15468    14840    14860 1
   15469    14840    14861 1
   15470    14841    14842 1
   15471    14841    14862 1
   15472    14841    14863 1
   15473    14842    14864 1
   15474    14842    14865 1
   15475    14842    14866 1
   15476    14843    14844 1
   15477    14843    14867 1
   15478    14843    14868 1
   15479    14844    14845 1
   15480    14844    14869 1
   15481    14844    14870 1
   15482    14845    14846 1
   15483    14845    14871 1
   15484    14845    14872 1
   15485    14846    14847 1
   15486    14846    14873 1
   15487    14846    14874 1
   15488    14847    14848 1
   15489    14847    14875 1
   15490    14847    14876 1
   15491    14848    14849 1
   15492    14848    14877 1
   15493    14848    14878 1
   15494    14849    14850 1
   15495    14849    14879 1
   15496    14849    14880 1
   15497    14850    14881 1
   15498    14850    14882 1
   15499    14850    14883 1
   15500    14884    14885 1
   15501    14884    14891 1
   15502    14884    14907 1
   15503    14884    14956 1
   15504    14885    14886 1
   15505    14885    14889 1
   15506    14886    14887 1
   15507    14886    14890 1
   15508    14887    14888 1
   15509    14888    14889 1
   15510    14889    14895 1
   15511    14890    14891 1
   15512    14890    14894 1
   15513    14891    14892 1
   15514    14892    14893 1
   15515    14892    14896 1
   15516    14893    14894 1
   15517    14893    14899 1
   15518    14897    14898 1
   15519    14897    14905 1
   15520    14898    14899 1
   15521    14898    14906 1
   15522    14899    14900 1
   15523    14900    14901 1
   15524    14900    14904 1
   15525    14901    14902 1
   15526    14902    14903 1
   15527    14903    14904 1
   15528    14904    14905 1
   15529    14905    15009 1
   15530    14907    14908 1
   15531    14907    14923 1
   15532    14907    14924 1
   15533    14908    14909 1
   15534    14908    14915 1
   15535    14908    14925 1
   15536    14909    14910 1
   15537    14909    14926 1
   15538    14909    14927 1
   15539    14910    14911 1
   15540    14910    14928 1
   15541    14910    14929 1
   15542    14911    14912 1
   15543    14911    14930 1
   15544    14911    14931 1
   15545    14912    14913 1
   15546    14912    14932 1
   15547    14912    14933 1
   15548    14913    14914 1
   15549    14913    14934 1
   15550    14913    14935 1
   15551    14914    14936 1
   15552    14914    14937 1
   15553    14914    14938 1
   15554    14915    14916 1
   15555    14915    14939 1
   15556    14915    14940 1
   15557    14916    14917 1
   15558    14916    14941 1
   15559    14916    14942 1
   15560    14917    14918 1
   15561    14917    14943 1
   15562    14917    14944 1
   15563    14918    14919 1
   15564    14918    14945 1
   15565    14918    14946 1
   15566    14919    14920 1
   15567    14919    14947 1
   15568    14919    14948 1
   15569    14920    14921 1
   15570    14920    14949 1
   15571    14920    14950 1
   15572    14921    14922 1
   15573    14921    14951 1
   15574    14921    14952 1
   15575    14922    14953 1
   15576    14922    14954 1
   15577    14922    14955 1
   15578    14956    14957 1
   15579    14956    14972 1
   15580    14956    14973 1
   15581    14957    14958 1
   15582    14957    14964 1
   15583    14957    14974 1
   15584    14958    14959 1
   15585    14958    14975 1
   15586    14958    14976 1
   15587    14959    14960 1
   15588    14959    14977 1
   15589    14959    14978 1
   15590    14960    14961 1
   15591    14960    14979 1
   15592    14960    14980 1
   15593    14961    14962 1
   15594    14961    14981 1
   15595    14961    14982 1
   15596    14962    14963 1
   15597    14962    14983 1
   15598    14962    14984 1
   15599    14963    14985 1
   15600    14963    14986 1
   15601    14963    14987 1
   15602    14964    14965 1
   15603    14964    14988 1
   15604    14964    14989 1
   15605    14965    14966 1
   15606    14965    14990 1
   15607    14965    14991 1
   15608    14966    14967 1
   15609    14966    14992 1
   15610    14966    14993 1
   15611    14967    14968 1
   15612    14967    14994 1
   15613    14967    14995 1
   15614    14968    14969 1
   15615    14968    14996 1
   15616    14968    14997 1
   15617    14969    14970 1
   15618    14969    14998 1
   15619    14969    14999 1
   15620    14970    14971 1
   15621    14970    15000 1
   15622    14970    15001 1
   15623    14971    15002 1
   15624    14971    15003 1
   15625    14971    15004 1
   15626    15005    15006 1
   15627    15005    15012 1
   15628    15005    15028 1
   15629    15005    15077 1
   15630    15006    15007 1
   15631    15006    15010 1
   15632    15007    15008 1
   15633    15007    15011 1
   15634    15008    15009 1
   15635    15009    15010 1
   15636    15010    15016 1
   15637    15011    15012 1
   15638    15011    15015 1
   15639    15012    15013 1
   15640    15013    15014 1
   15641    15013    15017 1
   15642    15014    15015 1
   15643    15014    15020 1
   15644    15018    15019 1
   15645    15018    15026 1
   15646    15019    15020 1
   15647    15019    15027 1
   15648    15020    15021 1
   15649    15021    15022 1
   15650    15021    15025 1
   15651    15022    15023 1
   15652    15023    15024 1
   15653    15024    15025 1
   15654    15025    15026 1
   15655    15026    15130 1
   15656    15028    15029 1
   15657    15028    15044 1
   15658    15028    15045 1
   15659    15029    15030 1
   15660    15029    15036 1
   15661    15029    15046 1
   15662    15030    15031 1
   15663    15030    15047 1
   15664    15030    15048 1
   15665    15031    15032 1
   15666    15031    15049 1
   15667    15031    15050 1
   15668    15032    15033 1
   15669    15032    15051 1
   15670    15032    15052 1
   15671    15033    15034 1
   15672    15033    15053 1
   15673    15033    15054 1
   15674    15034    15035 1
   15675    15034    15055 1
   15676    15034    15056 1
   15677    15035    15057 1
   15678    15035    15058 1
   15679    15035    15059 1
   15680    15036    15037 1
   15681    15036    15060 1
   15682    15036    15061 1
   15683    15037    15038 1
   15684    15037    15062 1
   15685    15037    15063 1
   15686    15038    15039 1
   15687    15038    15064 1
   15688    15038    15065 1
   15689    15039    15040 1
   15690    15039    15066 1
   15691    15039    15067 1
   15692    15040    15041 1
   15693    15040    15068 1
   15694    15040    15069 1
   15695    15041    15042 1
   15696    15041    15070 1
   15697    15041    15071 1
   15698    15042    15043 1
   15699    15042    15072 1
   15700    15042    15073 1
   15701    15043    15074 1
   15702    15043    15075 1
   15703    15043    15076 1
   15704    15077    15078 1
   15705    15077    15093 1
   15706    15077    15094 1
   15707    15078    15079 1
   15708    15078    15085 1
   15709    15078    15095 1
   15710    15079    15080 1
   15711    15079    15096 1
   15712    15079    15097 1
   15713    15080    15081 1
   15714    15080    15098 1
   15715    15080    15099 1
   15716    15081    15082 1
   15717    15081    15100 1
   15718    15081    15101 1
   15719    15082    15083 1
   15720    15082    15102 1
   15721    15082    15103 1
   15722    15083    15084 1
   15723    15083    15104 1
   15724    15083    15105 1
   15725    15084    15106 1
   15726    15084    15107 1
   15727    15084    15108 1
   15728    15085    15086 1
   15729    15085    15109 1
   15730    15085    15110 1
   15731    15086    15087 1
   15732    15086    15111 1
   15733    15086    15112 1
   15734    15087    15088 1
   15735    15087    15113 1
   15736    15087    15114 1
   15737    15088    15089 1
   15738    15088    15115 1
   15739    15088    15116 1
   15740    15089    15090 1
   15741    15089    15117 1
   15742    15089    15118 1
   15743    15090    15091 1
   15744    15090    15119 1
   15745    15090    15120 1
   15746    15091    15092 1
   15747    15091    15121 1
   15748    15091    15122 1
   15749    15092    15123 1
   15750    15092    15124 1
   15751    15092    15125 1
   15752    15126    15127 1
   15753    15126    15133 1
   15754    15126    15149 1
   15755    15126    15198 1
   15756    15127    15128 1
   15757    15127    15131 1
   15758    15128    15129 1
   15759    15128    15132 1
   15760    15129    15130 1
   15761    15130    15131 1
   15762    15131    15137 1
   15763    15132    15133 1
   15764    15132    15136 1
   15765    15133    15134 1
   15766    15134    15135 1
   15767    15134    15138 1
   15768    15135    15136 1
   15769    15135    15141 1
   15770    15139    15140 1
   15771    15139    15147 1
   15772    15140    15141 1
   15773    15140    15148 1
   15774    15141    15142 1
   15775    15142    15143 1
   15776    15142    15146 1
   15777    15143    15144 1
   15778    15144    15145 1
   15779    15145    15146 1
   15780    15146    15147 1
   15781    15147    15251 1
   15782    15149    15150 1
   15783    15149    15165 1
   15784    15149    15166 1
   15785    15150    15151 1
   15786    15150    15157 1
   15787    15150    15167 1
   15788    15151    15152 1
   15789    15151    15168 1
   15790    15151    15169 1
   15791    15152    15153 1
   15792    15152    15170 1
   15793    15152    15171 1
   15794    15153    15154 1
   15795    15153    15172 1
   15796    15153    15173 1
   15797    15154    15155 1
   15798    15154    15174 1
   15799    15154    15175 1
   15800    15155    15156 1
   15801    15155    15176 1
   15802    15155    15177 1
   15803    15156    15178 1
   15804    15156    15179 1
   15805    15156    15180 1
   15806    15157    15158 1
   15807    15157    15181 1
   15808    15157    15182 1
   15809    15158    15159 1
   15810    15158    15183 1
   15811    15158    15184 1
   15812    15159    15160 1
   15813    15159    15185 1
   15814    15159    15186 1
   15815    15160    15161 1
   15816    15160    15187 1
   15817    15160    15188 1
   15818    15161    15162 1
   15819    15161    15189 1
   15820    15161    15190 1
   15821    15162    15163 1
   15822    15162    15191 1
   15823    15162    15192 1
   15824    15163    15164 1
   15825    15163    15193 1
   15826    15163    15194 1
   15827    15164    15195 1
   15828    15164    15196 1
   15829    15164    15197 1
   15830    15198    15199 1
   15831    15198    15214 1
   15832    15198    15215 1
   15833    15199    15200 1
   15834    15199    15206 1
   15835    15199    15216 1
   15836    15200    15201 1
   15837    15200    15217 1
   15838    15200    15218 1
   15839    15201    15202 1
   15840    15201    15219 1
   15841    15201    15220 1
   15842    15202    15203 1
   15843    15202    15221 1
   15844    15202    15222 1
   15845    15203    15204 1
   15846    15203    15223 1
   15847    15203    15224 1
   15848    15204    15205 1
   15849    15204    15225 1
   15850    15204    15226 1
   15851    15205    15227 1
   15852    15205    15228 1
   15853    15205    15229 1
   15854    15206    15207 1
   15855    15206    15230 1
   15856    15206    15231 1
   15857    15207    15208 1
   15858    15207    15232 1
   15859    15207    15233 1
   15860    15208    15209 1
   15861    15208    15234 1
   15862    15208    15235 1
   15863    15209    15210 1
   15864    15209    15236 1
   15865    15209    15237 1
   15866    15210    15211 1
   15867    15210    15238 1
   15868    15210    15239 1
   15869    15211    15212 1
   15870    15211    15240 1
   15871    15211    15241 1
   15872    15212    15213 1
   15873    15212    15242 1
   15874    15212    15243 1
   15875    15213    15244 1
   15876    15213    15245 1
   15877    15213    15246 1
   15878    15247    15248 1
   15879    15247    15254 1
   15880    15247    15270 1
   15881    15247    15319 1
   15882    15248    15249 1
   15883    15248    15252 1
   15884    15249    15250 1
   15885    15249    15253 1
   15886    15250    15251 1
   15887    15251    15252 1
   15888    15252    15258 1
   15889    15253    15254 1
   15890    15253    15257 1
   15891    15254    15255 1
   15892    15255    15256 1
   15893    15255    15259 1
   15894    15256    15257 1
   15895    15256    15262 1
   15896    15260    15261 1
   15897    15260    15268 1
   15898    15261    15262 1
   15899    15261    15269 1
   15900    15262    15263 1
   15901    15263    15264 1
   15902    15263    15267 1
   15903    15264    15265 1
   15904    15265    15266 1
   15905    15266    15267 1
   15906    15267    15268 1
   15907    15268    15372 1
   15908    15270    15271 1
   15909    15270    15286 1
   15910    15270    15287 1
   15911    15271    15272 1
   15912    15271    15278 1
   15913    15271    15288 1
   15914    15272    15273 1
   15915    15272    15289 1
   15916    15272    15290 1
   15917    15273    15274 1
   15918    15273    15291 1
   15919    15273    15292 1
   15920    15274    15275 1
   15921    15274    15293 1
   15922    15274    15294 1
   15923    15275    15276 1
   15924    15275    15295 1
   15925    15275    15296 1
   15926    15276    15277 1
   15927    15276    15297 1
   15928    15276    15298 1
   15929    15277    15299 1
   15930    15277    15300 1
   15931    15277    15301 1
   15932    15278    15279 1
   15933    15278    15302 1
   15934    15278    15303 1
   15935    15279    15280 1
   15936    15279    15304 1
   15937    15279    15305 1
   15938    15280    15281 1
   15939    15280    15306 1
   15940    15280    15307 1
   15941    15281    15282 1
   15942    15281    15308 1
   15943    15281    15309 1
   15944    15282    15283 1
   15945    15282    15310 1
   15946    15282    15311 1
   15947    15283    15284 1
   15948    15283    15312 1
   15949    15283    15313 1
   15950    15284    15285 1
   15951    15284    15314 1
   15952    15284    15315 1
   15953    15285    15316 1
   15954    15285    15317 1
   15955    15285    15318 1
   15956    15319    15320 1
   15957    15319    15335 1
   15958    15319    15336 1
   15959    15320    15321 1
   15960    15320    15327 1
   15961    15320    15337 1
   15962    15321    15322 1
   15963    15321    15338 1
   15964    15321    15339 1
   15965    15322    15323 1
   15966    15322    15340 1
   15967    15322    15341 1
   15968    15323    15324 1
   15969    15323    15342 1
   15970    15323    15343 1
   15971    15324    15325 1
   15972    15324    15344 1
   15973    15324    15345 1
   15974    15325    15326 1
   15975    15325    15346 1
   15976    15325    15347 1
   15977    15326    15348 1
   15978    15326    15349 1
   15979    15326    15350 1
   15980    15327    15328 1
   15981    15327    15351 1
   15982    15327    15352 1
   15983    15328    15329 1
   15984    15328    15353 1
   15985    15328    15354 1
   15986    15329    15330 1
   15987    15329    15355 1
   15988    15329    15356 1
   15989    15330    15331 1
   15990    15330    15357 1
   15991    15330    15358 1
   15992    15331    15332 1
   15993    15331    15359 1
   15994    15331    15360 1
   15995    15332    15333 1
   15996    15332    15361 1
   15997    15332    15362 1
   15998    15333    15334 1
   15999    15333    15363 1
   16000    15333    15364 1
   16001    15334    15365 1
   16002    15334    15366 1
   16003    15334    15367 1
   16004    15368    15369 1
   16005    15368    15375 1
   16006    15368    15391 1
   16007    15368    15440 1
   16008    15369    15370 1
   16009    15369    15373 1
   16010    15370    15371 1
   16011    15370    15374 1
   16012    15371    15372 1
   16013    15372    15373 1
   16014    15373    15379 1
   16015    15374    15375 1
   16016    15374    15378 1
   16017    15375    15376 1
   16018    15376    15377 1
   16019    15376    15380 1
   16020    15377    15378 1
   16021    15377    15383 1
   16022    15381    15382 1
   16023    15381    15389 1
   16024    15382    15383 1
   16025    15382    15390 1
   16026    15383    15384 1
   16027    15384    15385 1
   16028    15384    15388 1
   16029    15385    15386 1
   16030    15386    15387 1
   16031    15387    15388 1
   16032    15388    15389 1
   16033    15389    15493 1
   16034    15391    15392 1
   16035    15391    15407 1
   16036    15391    15408 1
   16037    15392    15393 1
   16038    15392    15399 1
   16039    15392    15409 1
   16040    15393    15394 1
   16041    15393    15410 1
   16042    15393    15411 1
   16043    15394    15395 1
   16044    15394    15412 1
   16045    15394    15413 1
   16046    15395    15396 1
   16047    15395    15414 1
   16048    15395    15415 1
   16049    15396    15397 1
   16050    15396    15416 1
   16051    15396    15417 1
   16052    15397    15398 1
   16053    15397    15418 1
   16054    15397    15419 1
   16055    15398    15420 1
   16056    15398    15421 1
   16057    15398    15422 1
   16058    15399    15400 1
   16059    15399    15423 1
   16060    15399    15424 1
   16061    15400    15401 1
   16062    15400    15425 1
   16063    15400    15426 1
   16064    15401    15402 1
   16065    15401    15427 1
   16066    15401    15428 1
   16067    15402    15403 1
   16068    15402    15429 1
   16069    15402    15430 1
   16070    15403    15404 1
   16071    15403    15431 1
   16072    15403    15432 1
   16073    15404    15405 1
   16074    15404    15433 1
   16075    15404    15434 1
   16076    15405    15406 1
   16077    15405    15435 1
   16078    15405    15436 1
   16079    15406    15437 1
   16080    15406    15438 1
   16081    15406    15439 1
   16082    15440    15441 1
   16083    15440    15456 1
   16084    15440    15457 1
   16085    15441    15442 1
   16086    15441    15448 1
   16087    15441    15458 1
   16088    15442    15443 1
   16089    15442    15459 1
   16090    15442    15460 1
   16091    15443    15444 1
   16092    15443    15461 1
   16093    15443    15462 1
   16094    15444    15445 1
   16095    15444    15463 1
   16096    15444    15464 1
   16097    15445    15446 1
   16098    15445    15465 1
   16099    15445    15466 1
   16100    15446    15447 1
   16101    15446    15467 1
   16102    15446    15468 1
   16103    15447    15469 1
   16104    15447    15470 1
   16105    15447    15471 1
   16106    15448    15449 1
   16107    15448    15472 1
   16108    15448    15473 1
   16109    15449    15450 1
   16110    15449    15474 1
   16111    15449    15475 1
   16112    15450    15451 1
   16113    15450    15476 1
   16114    15450    15477 1
   16115    15451    15452 1
   16116    15451    15478 1
   16117    15451    15479 1
   16118    15452    15453 1
   16119    15452    15480 1
   16120    15452    15481 1
   16121    15453    15454 1
   16122    15453    15482 1
   16123    15453    15483 1
   16124    15454    15455 1
   16125    15454    15484 1
   16126    15454    15485 1
   16127    15455    15486 1
   16128    15455    15487 1
   16129    15455    15488 1
   16130    15489    15490 1
   16131    15489    15496 1
   16132    15489    15512 1
   16133    15489    15561 1
   16134    15490    15491 1
   16135    15490    15494 1
   16136    15491    15492 1
   16137    15491    15495 1
   16138    15492    15493 1
   16139    15493    15494 1
   16140    15494    15500 1
   16141    15495    15496 1
   16142    15495    15499 1
   16143    15496    15497 1
   16144    15497    15498 1
   16145    15497    15501 1
   16146    15498    15499 1
   16147    15498    15504 1
   16148    15502    15503 1
   16149    15502    15510 1
   16150    15503    15504 1
   16151    15503    15511 1
   16152    15504    15505 1
   16153    15505    15506 1
   16154    15505    15509 1
   16155    15506    15507 1
   16156    15507    15508 1
   16157    15508    15509 1
   16158    15509    15510 1
   16159    15510    15614 1
   16160    15512    15513 1
   16161    15512    15528 1
   16162    15512    15529 1
   16163    15513    15514 1
   16164    15513    15520 1
   16165    15513    15530 1
   16166    15514    15515 1
   16167    15514    15531 1
   16168    15514    15532 1
   16169    15515    15516 1
   16170    15515    15533 1
   16171    15515    15534 1
   16172    15516    15517 1
   16173    15516    15535 1
   16174    15516    15536 1
   16175    15517    15518 1
   16176    15517    15537 1
   16177    15517    15538 1
   16178    15518    15519 1
   16179    15518    15539 1
   16180    15518    15540 1
   16181    15519    15541 1
   16182    15519    15542 1
   16183    15519    15543 1
   16184    15520    15521 1
   16185    15520    15544 1
   16186    15520    15545 1
   16187    15521    15522 1
   16188    15521    15546 1
   16189    15521    15547 1
   16190    15522    15523 1
   16191    15522    15548 1
   16192    15522    15549 1
   16193    15523    15524 1
   16194    15523    15550 1
   16195    15523    15551 1
   16196    15524    15525 1
   16197    15524    15552 1
   16198    15524    15553 1
   16199    15525    15526 1
   16200    15525    15554 1
   16201    15525    15555 1
   16202    15526    15527 1
   16203    15526    15556 1
   16204    15526    15557 1
   16205    15527    15558 1
   16206    15527    15559 1
   16207    15527    15560 1
   16208    15561    15562 1
   16209    15561    15577 1
   16210    15561    15578 1
   16211    15562    15563 1
   16212    15562    15569 1
   16213    15562    15579 1
   16214    15563    15564 1
   16215    15563    15580 1
   16216    15563    15581 1
   16217    15564    15565 1
   16218    15564    15582 1
   16219    15564    15583 1
   16220    15565    15566 1
   16221    15565    15584 1
   16222    15565    15585 1
   16223    15566    15567 1
   16224    15566    15586 1
   16225    15566    15587 1
   16226    15567    15568 1
   16227    15567    15588 1
   16228    15567    15589 1
   16229    15568    15590 1
   16230    15568    15591 1
   16231    15568    15592 1
   16232    15569    15570 1
   16233    15569    15593 1
   16234    15569    15594 1
   16235    15570    15571 1
   16236    15570    15595 1
   16237    15570    15596 1
   16238    15571    15572 1
   16239    15571    15597 1
   16240    15571    15598 1
   16241    15572    15573 1
   16242    15572    15599 1
   16243    15572    15600 1
   16244    15573    15574 1
   16245    15573    15601 1
   16246    15573    15602 1
   16247    15574    15575 1
   16248    15574    15603 1
   16249    15574    15604 1
   16250    15575    15576 1
   16251    15575    15605 1
   16252    15575    15606 1
   16253    15576    15607 1
   16254    15576    15608 1
   16255    15576    15609 1
   16256    15610    15611 1
   16257    15610    15617 1
   16258    15610    15633 1
   16259    15610    15682 1
   16260    15611    15612 1
   16261    15611    15615 1
   16262    15612    15613 1
   16263    15612    15616 1
   16264    15613    15614 1
   16265    15614    15615 1
   16266    15615    15621 1
   16267    15616    15617 1
   16268    15616    15620 1
   16269    15617    15618 1
   16270    15618    15619 1
   16271    15618    15622 1
   16272    15619    15620 1
   16273    15619    15625 1
   16274    15623    15624 1
   16275    15623    15631 1
   16276    15624    15625 1
   16277    15624    15632 1
   16278    15625    15626 1
   16279    15626    15627 1
   16280    15626    15630 1
   16281    15627    15628 1
   16282    15628    15629 1
   16283    15629    15630 1
   16284    15630    15631 1
   16285    15631    15735 1
   16286    15633    15634 1
   16287    15633    15649 1
   16288    15633    15650 1
   16289    15634    15635 1
   16290    15634    15641 1
   16291    15634    15651 1
   16292    15635    15636 1
   16293    15635    15652 1
   16294    15635    15653 1
   16295    15636    15637 1
   16296    15636    15654 1
   16297    15636    15655 1
   16298    15637    15638 1
   16299    15637    15656 1
   16300    15637    15657 1
   16301    15638    15639 1
   16302    15638    15658 1
   16303    15638    15659 1
   16304    15639    15640 1
   16305    15639    15660 1
   16306    15639    15661 1
   16307    15640    15662 1
   16308    15640    15663 1
   16309    15640    15664 1
   16310    15641    15642 1
   16311    15641    15665 1
   16312    15641    15666 1
   16313    15642    15643 1
   16314    15642    15667 1
   16315    15642    15668 1
   16316    15643    15644 1
   16317    15643    15669 1
   16318    15643    15670 1
   16319    15644    15645 1
   16320    15644    15671 1
   16321    15644    15672 1
   16322    15645    15646 1
   16323    15645    15673 1
   16324    15645    15674 1
   16325    15646    15647 1
   16326    15646    15675 1
   16327    15646    15676 1
   16328    15647    15648 1
   16329    15647    15677 1
   16330    15647    15678 1
   16331    15648    15679 1
   16332    15648    15680 1
   16333    15648    15681 1
   16334    15682    15683 1
   16335    15682    15698 1
   16336    15682    15699 1
   16337    15683    15684 1
   16338    15683    15690 1
   16339    15683    15700 1
   16340    15684    15685 1
   16341    15684    15701 1
   16342    15684    15702 1
   16343    15685    15686 1
   16344    15685    15703 1
   16345    15685    15704 1
   16346    15686    15687 1
   16347    15686    15705 1
   16348    15686    15706 1
   16349    15687    15688 1
   16350    15687    15707 1
   16351    15687    15708 1
   16352    15688    15689 1
   16353    15688    15709 1
   16354    15688    15710 1
   16355    15689    15711 1
   16356    15689    15712 1
   16357    15689    15713 1
   16358    15690    15691 1
   16359    15690    15714 1
   16360    15690    15715 1
   16361    15691    15692 1
   16362    15691    15716 1
   16363    15691    15717 1
   16364    15692    15693 1
   16365    15692    15718 1
   16366    15692    15719 1
   16367    15693    15694 1
   16368    15693    15720 1
   16369    15693    15721 1
   16370    15694    15695 1
   16371    15694    15722 1
   16372    15694    15723 1
   16373    15695    15696 1
   16374    15695    15724 1
   16375    15695    15725 1
   16376    15696    15697 1
   16377    15696    15726 1
   16378    15696    15727 1
   16379    15697    15728 1
   16380    15697    15729 1
   16381    15697    15730 1
   16382    15731    15732 1
   16383    15731    15738 1
   16384    15731    15754 1
   16385    15731    15803 1
   16386    15732    15733 1
   16387    15732    15736 1
   16388    15733    15734 1
   16389    15733    15737 1
   16390    15734    15735 1
   16391    15735    15736 1
   16392    15736    15742 1
   16393    15737    15738 1
   16394    15737    15741 1
   16395    15738    15739 1
   16396    15739    15740 1
   16397    15739    15743 1
   16398    15740    15741 1
   16399    15740    15746 1
   16400    15744    15745 1
   16401    15744    15752 1
   16402    15745    15746 1
   16403    15745    15753 1
   16404    15746    15747 1
   16405    15747    15748 1
   16406    15747    15751 1
   16407    15748    15749 1
   16408    15749    15750 1
   16409    15750    15751 1
   16410    15751    15752 1
   16411    15752    15856 1
   16412    15754    15755 1
   16413    15754    15770 1
   16414    15754    15771 1
   16415    15755    15756 1
   16416    15755    15762 1
   16417    15755    15772 1
   16418    15756    15757 1
   16419    15756    15773 1
   16420    15756    15774 1
   16421    15757    15758 1
   16422    15757    15775 1
   16423    15757    15776 1
   16424    15758    15759 1
   16425    15758    15777 1
   16426    15758    15778 1
   16427    15759    15760 1
   16428    15759    15779 1
   16429    15759    15780 1
   16430    15760    15761 1
   16431    15760    15781 1
   16432    15760    15782 1
   16433    15761    15783 1
   16434    15761    15784 1
   16435    15761    15785 1
   16436    15762    15763 1
   16437    15762    15786 1
   16438    15762    15787 1
   16439    15763    15764 1
   16440    15763    15788 1
   16441    15763    15789 1
   16442    15764    15765 1
   16443    15764    15790 1
   16444    15764    15791 1
   16445    15765    15766 1
   16446    15765    15792 1
   16447    15765    15793 1
   16448    15766    15767 1
   16449    15766    15794 1
   16450    15766    15795 1
   16451    15767    15768 1
   16452    15767    15796 1
   16453    15767    15797 1
   16454    15768    15769 1
   16455    15768    15798 1
   16456    15768    15799 1
   16457    15769    15800 1
   16458    15769    15801 1
   16459    15769    15802 1
   16460    15803    15804 1
   16461    15803    15819 1
   16462    15803    15820 1
   16463    15804    15805 1
   16464    15804    15811 1
   16465    15804    15821 1
   16466    15805    15806 1
   16467    15805    15822 1
   16468    15805    15823 1
   16469    15806    15807 1
   16470    15806    15824 1
   16471    15806    15825 1
   16472    15807    15808 1
   16473    15807    15826 1
   16474    15807    15827 1
   16475    15808    15809 1
   16476    15808    15828 1
   16477    15808    15829 1
   16478    15809    15810 1
   16479    15809    15830 1
   16480    15809    15831 1
   16481    15810    15832 1
   16482    15810    15833 1
   16483    15810    15834 1
   16484    15811    15812 1
   16485    15811    15835 1
   16486    15811    15836 1
   16487    15812    15813 1
   16488    15812    15837 1
   16489    15812    15838 1
   16490    15813    15814 1
   16491    15813    15839 1
   16492    15813    15840 1
   16493    15814    15815 1
   16494    15814    15841 1
   16495    15814    15842 1
   16496    15815    15816 1
   16497    15815    15843 1
   16498    15815    15844 1
   16499    15816    15817 1
   16500    15816    15845 1
   16501    15816    15846 1
   16502    15817    15818 1
   16503    15817    15847 1
   16504    15817    15848 1
   16505    15818    15849 1
   16506    15818    15850 1
   16507    15818    15851 1
   16508    15852    15853 1
   16509    15852    15859 1
   16510    15852    15875 1
   16511    15852    15924 1
   16512    15853    15854 1
   16513    15853    15857 1
   16514    15854    15855 1
   16515    15854    15858 1
   16516    15855    15856 1
   16517    15856    15857 1
   16518    15857    15863 1
   16519    15858    15859 1
   16520    15858    15862 1
   16521    15859    15860 1
   16522    15860    15861 1
   16523    15860    15864 1
   16524    15861    15862 1
   16525    15861    15867 1
   16526    15865    15866 1
   16527    15865    15873 1
   16528    15866    15867 1
   16529    15866    15874 1
   16530    15867    15868 1
   16531    15868    15869 1
   16532    15868    15872 1
   16533    15869    15870 1
   16534    15870    15871 1
   16535    15871    15872 1
   16536    15872    15873 1
   16537    15873    15977 1
   16538    15875    15876 1
   16539    15875    15891 1
   16540    15875    15892 1
   16541    15876    15877 1
   16542    15876    15883 1
   16543    15876    15893 1
   16544    15877    15878 1
   16545    15877    15894 1
   16546    15877    15895 1
   16547    15878    15879 1
   16548    15878    15896 1
   16549    15878    15897 1
   16550    15879    15880 1
   16551    15879    15898 1
   16552    15879    15899 1
   16553    15880    15881 1
   16554    15880    15900 1
   16555    15880    15901 1
   16556    15881    15882 1
   16557    15881    15902 1
   16558    15881    15903 1
   16559    15882    15904 1
   16560    15882    15905 1
   16561    15882    15906 1
   16562    15883    15884 1
   16563    15883    15907 1
   16564    15883    15908 1
   16565    15884    15885 1
   16566    15884    15909 1
   16567    15884    15910 1
   16568    15885    15886 1
   16569    15885    15911 1
   16570    15885    15912 1
   16571    15886    15887 1
   16572    15886    15913 1
   16573    15886    15914 1
   16574    15887    15888 1
   16575    15887    15915 1
   16576    15887    15916 1
   16577    15888    15889 1
   16578    15888    15917 1
   16579    15888    15918 1
   16580    15889    15890 1
   16581    15889    15919 1
   16582    15889    15920 1
   16583    15890    15921 1
   16584    15890    15922 1
   16585    15890    15923 1
   16586    15924    15925 1
   16587    15924    15940 1
   16588    15924    15941 1
   16589    15925    15926 1
   16590    15925    15932 1
   16591    15925    15942 1
   16592    15926    15927 1
   16593    15926    15943 1
   16594    15926    15944 1
   16595    15927    15928 1
   16596    15927    15945 1
   16597    15927    15946 1
   16598    15928    15929 1
   16599    15928    15947 1
   16600    15928    15948 1
   16601    15929    15930 1
   16602    15929    15949 1
   16603    15929    15950 1
   16604    15930    15931 1
   16605    15930    15951 1
   16606    15930    15952 1
   16607    15931    15953 1
   16608    15931    15954 1
   16609    15931    15955 1
   16610    15932    15933 1
   16611    15932    15956 1
   16612    15932    15957 1
   16613    15933    15934 1
   16614    15933    15958 1
   16615    15933    15959 1
   16616    15934    15935 1
   16617    15934    15960 1
   16618    15934    15961 1
   16619    15935    15936 1
   16620    15935    15962 1
   16621    15935    15963 1
   16622    15936    15937 1
   16623    15936    15964 1
   16624    15936    15965 1
   16625    15937    15938 1
   16626    15937    15966 1
   16627    15937    15967 1
   16628    15938    15939 1
   16629    15938    15968 1
   16630    15938    15969 1
   16631    15939    15970 1
   16632    15939    15971 1
   16633    15939    15972 1
   16634    15973    15974 1
   16635    15973    15980 1
   16636    15973    15996 1
   16637    15973    16045 1
   16638    15974    15975 1
   16639    15974    15978 1
   16640    15975    15976 1
   16641    15975    15979 1
   16642    15976    15977 1
   16643    15977    15978 1
   16644    15978    15984 1
   16645    15979    15980 1
   16646    15979    15983 1
   16647    15980    15981 1
   16648    15981    15982 1
   16649    15981    15985 1
   16650    15982    15983 1
   16651    15982    15988 1
   16652    15986    15987 1
   16653    15986    15994 1
   16654    15987    15988 1
   16655    15987    15995 1
   16656    15988    15989 1
   16657    15989    15990 1
   16658    15989    15993 1
   16659    15990    15991 1
   16660    15991    15992 1
   16661    15992    15993 1
   16662    15993    15994 1
   16663    15994    16098 1
   16664    15996    15997 1
   16665    15996    16012 1
   16666    15996    16013 1
   16667    15997    15998 1
   16668    15997    16004 1
   16669    15997    16014 1
   16670    15998    15999 1
   16671    15998    16015 1
   16672    15998    16016 1
   16673    15999    16000 1
   16674    15999    16017 1
   16675    15999    16018 1
   16676    16000    16001 1
   16677    16000    16019 1
   16678    16000    16020 1
   16679    16001    16002 1
   16680    16001    16021 1
   16681    16001    16022 1
   16682    16002    16003 1
   16683    16002    16023 1
   16684    16002    16024 1
   16685    16003    16025 1
   16686    16003    16026 1
   16687    16003    16027 1
   16688    16004    16005 1
   16689    16004    16028 1
   16690    16004    16029 1
   16691    16005    16006 1
   16692    16005    16030 1
   16693    16005    16031 1
   16694    16006    16007 1
   16695    16006    16032 1
   16696    16006    16033 1
   16697    16007    16008 1
   16698    16007    16034 1
   16699    16007    16035 1
   16700    16008    16009 1
   16701    16008    16036 1
   16702    16008    16037 1
   16703    16009    16010 1
   16704    16009    16038 1
   16705    16009    16039 1
   16706    16010    16011 1
   16707    16010    16040 1
   16708    16010    16041 1
   16709    16011    16042 1
   16710    16011    16043 1
   16711    16011    16044 1
   16712    16045    16046 1
   16713    16045    16061 1
   16714    16045    16062 1
   16715    16046    16047 1
   16716    16046    16053 1
   16717    16046    16063 1
   16718    16047    16048 1
   16719    16047    16064 1
   16720    16047    16065 1
   16721    16048    16049 1
   16722    16048    16066 1
   16723    16048    16067 1
   16724    16049    16050 1
   16725    16049    16068 1
   16726    16049    16069 1
   16727    16050    16051 1
   16728    16050    16070 1
   16729    16050    16071 1
   16730    16051    16052 1
   16731    16051    16072 1
   16732    16051    16073 1
   16733    16052    16074 1
   16734    16052    16075 1
   16735    16052    16076 1
   16736    16053    16054 1
   16737    16053    16077 1
   16738    16053    16078 1
   16739    16054    16055 1
   16740    16054    16079 1
   16741    16054    16080 1
   16742    16055    16056 1
   16743    16055    16081 1
   16744    16055    16082 1
   16745    16056    16057 1
   16746    16056    16083 1
   16747    16056    16084 1
   16748    16057    16058 1
   16749    16057    16085 1
   16750    16057    16086 1
   16751    16058    16059 1
   16752    16058    16087 1
   16753    16058    16088 1
   16754    16059    16060 1
   16755    16059    16089 1
   16756    16059    16090 1
   16757    16060    16091 1
   16758    16060    16092 1
   16759    16060    16093 1
   16760    16094    16095 1
   16761    16094    16101 1
   16762    16094    16117 1
   16763    16094    16166 1
   16764    16095    16096 1
   16765    16095    16099 1
   16766    16096    16097 1
   16767    16096    16100 1
   16768    16097    16098 1
   16769    16098    16099 1
   16770    16099    16105 1
   16771    16100    16101 1
   16772    16100    16104 1
   16773    16101    16102 1
   16774    16102    16103 1
   16775    16102    16106 1
   16776    16103    16104 1
   16777    16103    16109 1
   16778    16107    16108 1
   16779    16107    16115 1
   16780    16108    16109 1
   16781    16108    16116 1
   16782    16109    16110 1
   16783    16110    16111 1
   16784    16110    16114 1
   16785    16111    16112 1
   16786    16112    16113 1
   16787    16113    16114 1
   16788    16114    16115 1
   16789    16115    16219 1
   16790    16117    16118 1
   16791    16117    16133 1
   16792    16117    16134 1
   16793    16118    16119 1
   16794    16118    16125 1
   16795    16118    16135 1
   16796    16119    16120 1
   16797    16119    16136 1
   16798    16119    16137 1
   16799    16120    16121 1
   16800    16120    16138 1
   16801    16120    16139 1
   16802    16121    16122 1
   16803    16121    16140 1
   16804    16121    16141 1
   16805    16122    16123 1
   16806    16122    16142 1
   16807    16122    16143 1
   16808    16123    16124 1
   16809    16123    16144 1
   16810    16123    16145 1
   16811    16124    16146 1
   16812    16124    16147 1
   16813    16124    16148 1
   16814    16125    16126 1
   16815    16125    16149 1
   16816    16125    16150 1
   16817    16126    16127 1
   16818    16126    16151 1
   16819    16126    16152 1
   16820    16127    16128 1
   16821    16127    16153 1
   16822    16127    16154 1
   16823    16128    16129 1
   16824    16128    16155 1
   16825    16128    16156 1
   16826    16129    16130 1
   16827    16129    16157 1
   16828    16129    16158 1
   16829    16130    16131 1
   16830    16130    16159 1
   16831    16130    16160 1
   16832    16131    16132 1
   16833    16131    16161 1
   16834    16131    16162 1
   16835    16132    16163 1
   16836    16132    16164 1
   16837    16132    16165 1
   16838    16166    16167 1
   16839    16166    16182 1
   16840    16166    16183 1
   16841    16167    16168 1
   16842    16167    16174 1
   16843    16167    16184 1
   16844    16168    16169 1
   16845    16168    16185 1
   16846    16168    16186 1
   16847    16169    16170 1
   16848    16169    16187 1
   16849    16169    16188 1
   16850    16170    16171 1
   16851    16170    16189 1
   16852    16170    16190 1
   16853    16171    16172 1
   16854    16171    16191 1
   16855    16171    16192 1
   16856    16172    16173 1
   16857    16172    16193 1
   16858    16172    16194 1
   16859    16173    16195 1
   16860    16173    16196 1
   16861    16173    16197 1
   16862    16174    16175 1
   16863    16174    16198 1
   16864    16174    16199 1
   16865    16175    16176 1
   16866    16175    16200 1
   16867    16175    16201 1
   16868    16176    16177 1
   16869    16176    16202 1
   16870    16176    16203 1
   16871    16177    16178 1
   16872    16177    16204 1
   16873    16177    16205 1
   16874    16178    16179 1
   16875    16178    16206 1
   16876    16178    16207 1
   16877    16179    16180 1
   16878    16179    16208 1
   16879    16179    16209 1
   16880    16180    16181 1
   16881    16180    16210 1
   16882    16180    16211 1
   16883    16181    16212 1
   16884    16181    16213 1
   16885    16181    16214 1
   16886    16215    16216 1
   16887    16215    16222 1
   16888    16215    16238 1
   16889    16215    16287 1
   16890    16216    16217 1
   16891    16216    16220 1
   16892    16217    16218 1
   16893    16217    16221 1
   16894    16218    16219 1
   16895    16219    16220 1
   16896    16220    16226 1
   16897    16221    16222 1
   16898    16221    16225 1
   16899    16222    16223 1
   16900    16223    16224 1
   16901    16223    16227 1
   16902    16224    16225 1
   16903    16224    16230 1
   16904    16228    16229 1
   16905    16228    16236 1
   16906    16229    16230 1
   16907    16229    16237 1
   16908    16230    16231 1
   16909    16231    16232 1
   16910    16231    16235 1
   16911    16232    16233 1
   16912    16233    16234 1
   16913    16234    16235 1
   16914    16235    16236 1
   16915    16236    16340 1
   16916    16238    16239 1
   16917    16238    16254 1
   16918    16238    16255 1
   16919    16239    16240 1
   16920    16239    16246 1
   16921    16239    16256 1
   16922    16240    16241 1
   16923    16240    16257 1
   16924    16240    16258 1
   16925    16241    16242 1
   16926    16241    16259 1
   16927    16241    16260 1
   16928    16242    16243 1
   16929    16242    16261 1
   16930    16242    16262 1
   16931    16243    16244 1
   16932    16243    16263 1
   16933    16243    16264 1
   16934    16244    16245 1
   16935    16244    16265 1
   16936    16244    16266 1
   16937    16245    16267 1
   16938    16245    16268 1
   16939    16245    16269 1
   16940    16246    16247 1
   16941    16246    16270 1
   16942    16246    16271 1
   16943    16247    16248 1
   16944    16247    16272 1
   16945    16247    16273 1
   16946    16248    16249 1
   16947    16248    16274 1
   16948    16248    16275 1
   16949    16249    16250 1
   16950    16249    16276 1
   16951    16249    16277 1
   16952    16250    16251 1
   16953    16250    16278 1
   16954    16250    16279 1
   16955    16251    16252 1
   16956    16251    16280 1
   16957    16251    16281 1
   16958    16252    16253 1
   16959    16252    16282 1
   16960    16252    16283 1
   16961    16253    16284 1
   16962    16253    16285 1
   16963    16253    16286 1
   16964    16287    16288 1
   16965    16287    16303 1
   16966    16287    16304 1
   16967    16288    16289 1
   16968    16288    16295 1
   16969    16288    16305 1
   16970    16289    16290 1
   16971    16289    16306 1
   16972    16289    16307 1
   16973    16290    16291 1
   16974    16290    16308 1
   16975    16290    16309 1
   16976    16291    16292 1
   16977    16291    16310 1
   16978    16291    16311 1
   16979    16292    16293 1
   16980    16292    16312 1
   16981    16292    16313 1
   16982    16293    16294 1
   16983    16293    16314 1
   16984    16293    16315 1
   16985    16294    16316 1
   16986    16294    16317 1
   16987    16294    16318 1
   16988    16295    16296 1
   16989    16295    16319 1
   16990    16295    16320 1
   16991    16296    16297 1
   16992    16296    16321 1
   16993    16296    16322 1
   16994    16297    16298 1
   16995    16297    16323 1
   16996    16297    16324 1
   16997    16298    16299 1
   16998    16298    16325 1
   16999    16298    16326 1
   17000    16299    16300 1
   17001    16299    16327 1
   17002    16299    16328 1
   17003    16300    16301 1
   17004    16300    16329 1
   17005    16300    16330 1
   17006    16301    16302 1
   17007    16301    16331 1
   17008    16301    16332 1
   17009    16302    16333 1
   17010    16302    16334 1
   17011    16302    16335 1
   17012    16336    16337 1
   17013    16336    16343 1
   17014    16336    16359 1
   17015    16336    16408 1
   17016    16337    16338 1
   17017    16337    16341 1
   17018    16338    16339 1
   17019    16338    16342 1
   17020    16339    16340 1
   17021    16340    16341 1
   17022    16341    16347 1
   17023    16342    16343 1
   17024    16342    16346 1
   17025    16343    16344 1
   17026    16344    16345 1
   17027    16344    16348 1
   17028    16345    16346 1
   17029    16345    16351 1
   17030    16349    16350 1
   17031    16349    16357 1
   17032    16350    16351 1
   17033    16350    16358 1
   17034    16351    16352 1
   17035    16352    16353 1
   17036    16352    16356 1
   17037    16353    16354 1
   17038    16354    16355 1
   17039    16355    16356 1
   17040    16356    16357 1
   17041    16357    16461 1
   17042    16359    16360 1
   17043    16359    16375 1
   17044    16359    16376 1
   17045    16360    16361 1
   17046    16360    16367 1
   17047    16360    16377 1
   17048    16361    16362 1
   17049    16361    16378 1
   17050    16361    16379 1
   17051    16362    16363 1
   17052    16362    16380 1
   17053    16362    16381 1
   17054    16363    16364 1
   17055    16363    16382 1
   17056    16363    16383 1
   17057    16364    16365 1
   17058    16364    16384 1
   17059    16364    16385 1
   17060    16365    16366 1
   17061    16365    16386 1
   17062    16365    16387 1
   17063    16366    16388 1
   17064    16366    16389 1
   17065    16366    16390 1
   17066    16367    16368 1
   17067    16367    16391 1
   17068    16367    16392 1
   17069    16368    16369 1
   17070    16368    16393 1
   17071    16368    16394 1
   17072    16369    16370 1
   17073    16369    16395 1
   17074    16369    16396 1
   17075    16370    16371 1
   17076    16370    16397 1
   17077    16370    16398 1
   17078    16371    16372 1
   17079    16371    16399 1
   17080    16371    16400 1
   17081    16372    16373 1
   17082    16372    16401 1
   17083    16372    16402 1
   17084    16373    16374 1
   17085    16373    16403 1
   17086    16373    16404 1
   17087    16374    16405 1
   17088    16374    16406 1
   17089    16374    16407 1
   17090    16408    16409 1
   17091    16408    16424 1
   17092    16408    16425 1
   17093    16409    16410 1
   17094    16409    16416 1
   17095    16409    16426 1
   17096    16410    16411 1
   17097    16410    16427 1
   17098    16410    16428 1
   17099    16411    16412 1
   17100    16411    16429 1
   17101    16411    16430 1
   17102    16412    16413 1
   17103    16412    16431 1
   17104    16412    16432 1
   17105    16413    16414 1
   17106    16413    16433 1
   17107    16413    16434 1
   17108    16414    16415 1
   17109    16414    16435 1
   17110    16414    16436 1
   17111    16415    16437 1
   17112    16415    16438 1
   17113    16415    16439 1
   17114    16416    16417 1
   17115    16416    16440 1
   17116    16416    16441 1
   17117    16417    16418 1
   17118    16417    16442 1
   17119    16417    16443 1
   17120    16418    16419 1
   17121    16418    16444 1
   17122    16418    16445 1
   17123    16419    16420 1
   17124    16419    16446 1
   17125    16419    16447 1
   17126    16420    16421 1
   17127    16420    16448 1
   17128    16420    16449 1
   17129    16421    16422 1
   17130    16421    16450 1
   17131    16421    16451 1
   17132    16422    16423 1
   17133    16422    16452 1
   17134    16422    16453 1
   17135    16423    16454 1
   17136    16423    16455 1
   17137    16423    16456 1
   17138    16457    16458 1
   17139    16457    16464 1
   17140    16457    16480 1
   17141    16457    16529 1
   17142    16458    16459 1
   17143    16458    16462 1
   17144    16459    16460 1
   17145    16459    16463 1
   17146    16460    16461 1
   17147    16461    16462 1
   17148    16462    16468 1
   17149    16463    16464 1
   17150    16463    16467 1
   17151    16464    16465 1
   17152    16465    16466 1
   17153    16465    16469 1
   17154    16466    16467 1
   17155    16466    16472 1
   17156    16470    16471 1
   17157    16470    16478 1
   17158    16471    16472 1
   17159    16471    16479 1
   17160    16472    16473 1
   17161    16473    16474 1
   17162    16473    16477 1
   17163    16474    16475 1
   17164    16475    16476 1
   17165    16476    16477 1
   17166    16477    16478 1
   17167    16478    16582 1
   17168    16480    16481 1
   17169    16480    16496 1
   17170    16480    16497 1
   17171    16481    16482 1
   17172    16481    16488 1
   17173    16481    16498 1
   17174    16482    16483 1
   17175    16482    16499 1
   17176    16482    16500 1
   17177    16483    16484 1
   17178    16483    16501 1
   17179    16483    16502 1
   17180    16484    16485 1
   17181    16484    16503 1
   17182    16484    16504 1
   17183    16485    16486 1
   17184    16485    16505 1
   17185    16485    16506 1
   17186    16486    16487 1
   17187    16486    16507 1
   17188    16486    16508 1
   17189    16487    16509 1
   17190    16487    16510 1
   17191    16487    16511 1
   17192    16488    16489 1
   17193    16488    16512 1
   17194    16488    16513 1
   17195    16489    16490 1
   17196    16489    16514 1
   17197    16489    16515 1
   17198    16490    16491 1
   17199    16490    16516 1
   17200    16490    16517 1
   17201    16491    16492 1
   17202    16491    16518 1
   17203    16491    16519 1
   17204    16492    16493 1
   17205    16492    16520 1
   17206    16492    16521 1
   17207    16493    16494 1
   17208    16493    16522 1
   17209    16493    16523 1
   17210    16494    16495 1
   17211    16494    16524 1
   17212    16494    16525 1
   17213    16495    16526 1
   17214    16495    16527 1
   17215    16495    16528 1
   17216    16529    16530 1
   17217    16529    16545 1
   17218    16529    16546 1
   17219    16530    16531 1
   17220    16530    16537 1
   17221    16530    16547 1
   17222    16531    16532 1
   17223    16531    16548 1
   17224    16531    16549 1
   17225    16532    16533 1
   17226    16532    16550 1
   17227    16532    16551 1
   17228    16533    16534 1
   17229    16533    16552 1
   17230    16533    16553 1
   17231    16534    16535 1
   17232    16534    16554 1
   17233    16534    16555 1
   17234    16535    16536 1
   17235    16535    16556 1
   17236    16535    16557 1
   17237    16536    16558 1
   17238    16536    16559 1
   17239    16536    16560 1
   17240    16537    16538 1
   17241    16537    16561 1
   17242    16537    16562 1
   17243    16538    16539 1
   17244    16538    16563 1
   17245    16538    16564 1
   17246    16539    16540 1
   17247    16539    16565 1
   17248    16539    16566 1
   17249    16540    16541 1
   17250    16540    16567 1
   17251    16540    16568 1
   17252    16541    16542 1
   17253    16541    16569 1
   17254    16541    16570 1
   17255    16542    16543 1
   17256    16542    16571 1
   17257    16542    16572 1
   17258    16543    16544 1
   17259    16543    16573 1
   17260    16543    16574 1
   17261    16544    16575 1
   17262    16544    16576 1
   17263    16544    16577 1
   17264    16578    16579 1
   17265    16578    16585 1
   17266    16578    16601 1
   17267    16578    16650 1
   17268    16579    16580 1
   17269    16579    16583 1
   17270    16580    16581 1
   17271    16580    16584 1
   17272    16581    16582 1
   17273    16582    16583 1
   17274    16583    16589 1
   17275    16584    16585 1
   17276    16584    16588 1
   17277    16585    16586 1
   17278    16586    16587 1
   17279    16586    16590 1
   17280    16587    16588 1
   17281    16587    16593 1
   17282    16591    16592 1
   17283    16591    16599 1
   17284    16592    16593 1
   17285    16592    16600 1
   17286    16593    16594 1
   17287    16594    16595 1
   17288    16594    16598 1
   17289    16595    16596 1
   17290    16596    16597 1
   17291    16597    16598 1
   17292    16598    16599 1
   17293    16599    16703 1
   17294    16601    16602 1
   17295    16601    16617 1
   17296    16601    16618 1
   17297    16602    16603 1
   17298    16602    16609 1
   17299    16602    16619 1
   17300    16603    16604 1
   17301    16603    16620 1
   17302    16603    16621 1
   17303    16604    16605 1
   17304    16604    16622 1
   17305    16604    16623 1
   17306    16605    16606 1
   17307    16605    16624 1
   17308    16605    16625 1
   17309    16606    16607 1
   17310    16606    16626 1
   17311    16606    16627 1
   17312    16607    16608 1
   17313    16607    16628 1
   17314    16607    16629 1
   17315    16608    16630 1
   17316    16608    16631 1
   17317    16608    16632 1
   17318    16609    16610 1
   17319    16609    16633 1
   17320    16609    16634 1
   17321    16610    16611 1
   17322    16610    16635 1
   17323    16610    16636 1
   17324    16611    16612 1
   17325    16611    16637 1
   17326    16611    16638 1
   17327    16612    16613 1
   17328    16612    16639 1
   17329    16612    16640 1
   17330    16613    16614 1
   17331    16613    16641 1
   17332    16613    16642 1
   17333    16614    16615 1
   17334    16614    16643 1
   17335    16614    16644 1
   17336    16615    16616 1
   17337    16615    16645 1
   17338    16615    16646 1
   17339    16616    16647 1
   17340    16616    16648 1
   17341    16616    16649 1
   17342    16650    16651 1
   17343    16650    16666 1
   17344    16650    16667 1
   17345    16651    16652 1
   17346    16651    16658 1
   17347    16651    16668 1
   17348    16652    16653 1
   17349    16652    16669 1
   17350    16652    16670 1
   17351    16653    16654 1
   17352    16653    16671 1
   17353    16653    16672 1
   17354    16654    16655 1
   17355    16654    16673 1
   17356    16654    16674 1
   17357    16655    16656 1
   17358    16655    16675 1
   17359    16655    16676 1
   17360    16656    16657 1
   17361    16656    16677 1
   17362    16656    16678 1
   17363    16657    16679 1
   17364    16657    16680 1
   17365    16657    16681 1
   17366    16658    16659 1
   17367    16658    16682 1
   17368    16658    16683 1
   17369    16659    16660 1
   17370    16659    16684 1
   17371    16659    16685 1
   17372    16660    16661 1
   17373    16660    16686 1
   17374    16660    16687 1
   17375    16661    16662 1
   17376    16661    16688 1
   17377    16661    16689 1
   17378    16662    16663 1
   17379    16662    16690 1
   17380    16662    16691 1
   17381    16663    16664 1
   17382    16663    16692 1
   17383    16663    16693 1
   17384    16664    16665 1
   17385    16664    16694 1
   17386    16664    16695 1
   17387    16665    16696 1
   17388    16665    16697 1
   17389    16665    16698 1
   17390    16699    16700 1
   17391    16699    16706 1
   17392    16699    16722 1
   17393    16699    16771 1
   17394    16700    16701 1
   17395    16700    16704 1
   17396    16701    16702 1
   17397    16701    16705 1
   17398    16702    16703 1
   17399    16703    16704 1
   17400    16704    16710 1
   17401    16705    16706 1
   17402    16705    16709 1
   17403    16706    16707 1
   17404    16707    16708 1
   17405    16707    16711 1
   17406    16708    16709 1
   17407    16708    16714 1
   17408    16712    16713 1
   17409    16712    16720 1
   17410    16713    16714 1
   17411    16713    16721 1
   17412    16714    16715 1
   17413    16715    16716 1
   17414    16715    16719 1
   17415    16716    16717 1
   17416    16717    16718 1
   17417    16718    16719 1
   17418    16719    16720 1
   17419    16720    16824 1
   17420    16722    16723 1
   17421    16722    16738 1
   17422    16722    16739 1
   17423    16723    16724 1
   17424    16723    16730 1
   17425    16723    16740 1
   17426    16724    16725 1
   17427    16724    16741 1
   17428    16724    16742 1
   17429    16725    16726 1
   17430    16725    16743 1
   17431    16725    16744 1
   17432    16726    16727 1
   17433    16726    16745 1
   17434    16726    16746 1
   17435    16727    16728 1
   17436    16727    16747 1
   17437    16727    16748 1
   17438    16728    16729 1
   17439    16728    16749 1
   17440    16728    16750 1
   17441    16729    16751 1
   17442    16729    16752 1
   17443    16729    16753 1
   17444    16730    16731 1
   17445    16730    16754 1
   17446    16730    16755 1
   17447    16731    16732 1
   17448    16731    16756 1
   17449    16731    16757 1
   17450    16732    16733 1
   17451    16732    16758 1
   17452    16732    16759 1
   17453    16733    16734 1
   17454    16733    16760 1
   17455    16733    16761 1
   17456    16734    16735 1
   17457    16734    16762 1
   17458    16734    16763 1
   17459    16735    16736 1
   17460    16735    16764 1
   17461    16735    16765 1
   17462    16736    16737 1
   17463    16736    16766 1
   17464    16736    16767 1
   17465    16737    16768 1
   17466    16737    16769 1
   17467    16737    16770 1
   17468    16771    16772 1
   17469    16771    16787 1
   17470    16771    16788 1
   17471    16772    16773 1
   17472    16772    16779 1
   17473    16772    16789 1
   17474    16773    16774 1
   17475    16773    16790 1
   17476    16773    16791 1
   17477    16774    16775 1
   17478    16774    16792 1
   17479    16774    16793 1
   17480    16775    16776 1
   17481    16775    16794 1
   17482    16775    16795 1
   17483    16776    16777 1
   17484    16776    16796 1
   17485    16776    16797 1
   17486    16777    16778 1
   17487    16777    16798 1
   17488    16777    16799 1
   17489    16778    16800 1
   17490    16778    16801 1
   17491    16778    16802 1
   17492    16779    16780 1
   17493    16779    16803 1
   17494    16779    16804 1
   17495    16780    16781 1
   17496    16780    16805 1
   17497    16780    16806 1
   17498    16781    16782 1
   17499    16781    16807 1
   17500    16781    16808 1
   17501    16782    16783 1
   17502    16782    16809 1
   17503    16782    16810 1
   17504    16783    16784 1
   17505    16783    16811 1
   17506    16783    16812 1
   17507    16784    16785 1
   17508    16784    16813 1
   17509    16784    16814 1
   17510    16785    16786 1
   17511    16785    16815 1
   17512    16785    16816 1
   17513    16786    16817 1
   17514    16786    16818 1
   17515    16786    16819 1
   17516    16820    16821 1
   17517    16820    16827 1
   17518    16820    16843 1
   17519    16820    16892 1
   17520    16821    16822 1
   17521    16821    16825 1
   17522    16822    16823 1
   17523    16822    16826 1
   17524    16823    16824 1
   17525    16824    16825 1
   17526    16825    16831 1
   17527    16826    16827 1
   17528    16826    16830 1
   17529    16827    16828 1
   17530    16828    16829 1
   17531    16828    16832 1
   17532    16829    16830 1
   17533    16829    16835 1
   17534    16833    16834 1
   17535    16833    16841 1
   17536    16834    16835 1
   17537    16834    16842 1
   17538    16835    16836 1
   17539    16836    16837 1
   17540    16836    16840 1
   17541    16837    16838 1
   17542    16838    16839 1
   17543    16839    16840 1
   17544    16840    16841 1
   17545    16841    16945 1
   17546    16843    16844 1
   17547    16843    16859 1
   17548    16843    16860 1
   17549    16844    16845 1
   17550    16844    16851 1
   17551    16844    16861 1
   17552    16845    16846 1
   17553    16845    16862 1
   17554    16845    16863 1
   17555    16846    16847 1
   17556    16846    16864 1
   17557    16846    16865 1
   17558    16847    16848 1
   17559    16847    16866 1
   17560    16847    16867 1
   17561    16848    16849 1
   17562    16848    16868 1
   17563    16848    16869 1
   17564    16849    16850 1
   17565    16849    16870 1
   17566    16849    16871 1
   17567    16850    16872 1
   17568    16850    16873 1
   17569    16850    16874 1
   17570    16851    16852 1
   17571    16851    16875 1
   17572    16851    16876 1
   17573    16852    16853 1
   17574    16852    16877 1
   17575    16852    16878 1
   17576    16853    16854 1
   17577    16853    16879 1
   17578    16853    16880 1
   17579    16854    16855 1
   17580    16854    16881 1
   17581    16854    16882 1
   17582    16855    16856 1
   17583    16855    16883 1
   17584    16855    16884 1
   17585    16856    16857 1
   17586    16856    16885 1
   17587    16856    16886 1
   17588    16857    16858 1
   17589    16857    16887 1
   17590    16857    16888 1
   17591    16858    16889 1
   17592    16858    16890 1
   17593    16858    16891 1
   17594    16892    16893 1
   17595    16892    16908 1
   17596    16892    16909 1
   17597    16893    16894 1
   17598    16893    16900 1
   17599    16893    16910 1
   17600    16894    16895 1
   17601    16894    16911 1
   17602    16894    16912 1
   17603    16895    16896 1
   17604    16895    16913 1
   17605    16895    16914 1
   17606    16896    16897 1
   17607    16896    16915 1
   17608    16896    16916 1
   17609    16897    16898 1
   17610    16897    16917 1
   17611    16897    16918 1
   17612    16898    16899 1
   17613    16898    16919 1
   17614    16898    16920 1
   17615    16899    16921 1
   17616    16899    16922 1
   17617    16899    16923 1
   17618    16900    16901 1
   17619    16900    16924 1
   17620    16900    16925 1
   17621    16901    16902 1
   17622    16901    16926 1
   17623    16901    16927 1
   17624    16902    16903 1
   17625    16902    16928 1
   17626    16902    16929 1
   17627    16903    16904 1
   17628    16903    16930 1
   17629    16903    16931 1
   17630    16904    16905 1
   17631    16904    16932 1
   17632    16904    16933 1
   17633    16905    16906 1
   17634    16905    16934 1
   17635    16905    16935 1
   17636    16906    16907 1
   17637    16906    16936 1
   17638    16906    16937 1
   17639    16907    16938 1
   17640    16907    16939 1
   17641    16907    16940 1
   17642    16941    16942 1
   17643    16941    16948 1
   17644    16941    16964 1
   17645    16941    17013 1
   17646    16942    16943 1
   17647    16942    16946 1
   17648    16943    16944 1
   17649    16943    16947 1
   17650    16944    16945 1
   17651    16945    16946 1
   17652    16946    16952 1
   17653    16947    16948 1
   17654    16947    16951 1
   17655    16948    16949 1
   17656    16949    16950 1
   17657    16949    16953 1
   17658    16950    16951 1
   17659    16950    16956 1
   17660    16954    16955 1
   17661    16954    16962 1
   17662    16955    16956 1
   17663    16955    16963 1
   17664    16956    16957 1
   17665    16957    16958 1
   17666    16957    16961 1
   17667    16958    16959 1
   17668    16959    16960 1
   17669    16960    16961 1
   17670    16961    16962 1
   17671    16962    17066 1
   17672    16964    16965 1
   17673    16964    16980 1
   17674    16964    16981 1
   17675    16965    16966 1
   17676    16965    16972 1
   17677    16965    16982 1
   17678    16966    16967 1
   17679    16966    16983 1
   17680    16966    16984 1
   17681    16967    16968 1
   17682    16967    16985 1
   17683    16967    16986 1
   17684    16968    16969 1
   17685    16968    16987 1
   17686    16968    16988 1
   17687    16969    16970 1
   17688    16969    16989 1
   17689    16969    16990 1
   17690    16970    16971 1
   17691    16970    16991 1
   17692    16970    16992 1
   17693    16971    16993 1
   17694    16971    16994 1
   17695    16971    16995 1
   17696    16972    16973 1
   17697    16972    16996 1
   17698    16972    16997 1
   17699    16973    16974 1
   17700    16973    16998 1
   17701    16973    16999 1
   17702    16974    16975 1
   17703    16974    17000 1
   17704    16974    17001 1
   17705    16975    16976 1
   17706    16975    17002 1
   17707    16975    17003 1
   17708    16976    16977 1
   17709    16976    17004 1
   17710    16976    17005 1
   17711    16977    16978 1
   17712    16977    17006 1
   17713    16977    17007 1
   17714    16978    16979 1
   17715    16978    17008 1
   17716    16978    17009 1
   17717    16979    17010 1
   17718    16979    17011 1
   17719    16979    17012 1
   17720    17013    17014 1
   17721    17013    17029 1
   17722    17013    17030 1
   17723    17014    17015 1
   17724    17014    17021 1
   17725    17014    17031 1
   17726    17015    17016 1
   17727    17015    17032 1
   17728    17015    17033 1
   17729    17016    17017 1
   17730    17016    17034 1
   17731    17016    17035 1
   17732    17017    17018 1
   17733    17017    17036 1
   17734    17017    17037 1
   17735    17018    17019 1
   17736    17018    17038 1
   17737    17018    17039 1
   17738    17019    17020 1
   17739    17019    17040 1
   17740    17019    17041 1
   17741    17020    17042 1
   17742    17020    17043 1
   17743    17020    17044 1
   17744    17021    17022 1
   17745    17021    17045 1
   17746    17021    17046 1
   17747    17022    17023 1
   17748    17022    17047 1
   17749    17022    17048 1
   17750    17023    17024 1
   17751    17023    17049 1
   17752    17023    17050 1
   17753    17024    17025 1
   17754    17024    17051 1
   17755    17024    17052 1
   17756    17025    17026 1
   17757    17025    17053 1
   17758    17025    17054 1
   17759    17026    17027 1
   17760    17026    17055 1
   17761    17026    17056 1
   17762    17027    17028 1
   17763    17027    17057 1
   17764    17027    17058 1
   17765    17028    17059 1
   17766    17028    17060 1
   17767    17028    17061 1
   17768    17062    17063 1
   17769    17062    17069 1
   17770    17062    17085 1
   17771    17062    17134 1
   17772    17063    17064 1
   17773    17063    17067 1
   17774    17064    17065 1
   17775    17064    17068 1
   17776    17065    17066 1
   17777    17066    17067 1
   17778    17067    17073 1
   17779    17068    17069 1
   17780    17068    17072 1
   17781    17069    17070 1
   17782    17070    17071 1
   17783    17070    17074 1
   17784    17071    17072 1
   17785    17071    17077 1
   17786    17075    17076 1
   17787    17075    17083 1
   17788    17076    17077 1
   17789    17076    17084 1
   17790    17077    17078 1
   17791    17078    17079 1
   17792    17078    17082 1
   17793    17079    17080 1
   17794    17080    17081 1
   17795    17081    17082 1
   17796    17082    17083 1
   17797    17083    17187 1
   17798    17085    17086 1
   17799    17085    17101 1
   17800    17085    17102 1
   17801    17086    17087 1
   17802    17086    17093 1
   17803    17086    17103 1
   17804    17087    17088 1
   17805    17087    17104 1
   17806    17087    17105 1
   17807    17088    17089 1
   17808    17088    17106 1
   17809    17088    17107 1
   17810    17089    17090 1
   17811    17089    17108 1
   17812    17089    17109 1
   17813    17090    17091 1
   17814    17090    17110 1
   17815    17090    17111 1
   17816    17091    17092 1
   17817    17091    17112 1
   17818    17091    17113 1
   17819    17092    17114 1
   17820    17092    17115 1
   17821    17092    17116 1
   17822    17093    17094 1
   17823    17093    17117 1
   17824    17093    17118 1
   17825    17094    17095 1
   17826    17094    17119 1
   17827    17094    17120 1
   17828    17095    17096 1
   17829    17095    17121 1
   17830    17095    17122 1
   17831    17096    17097 1
   17832    17096    17123 1
   17833    17096    17124 1
   17834    17097    17098 1
   17835    17097    17125 1
   17836    17097    17126 1
   17837    17098    17099 1
   17838    17098    17127 1
   17839    17098    17128 1
   17840    17099    17100 1
   17841    17099    17129 1
   17842    17099    17130 1
   17843    17100    17131 1
   17844    17100    17132 1
   17845    17100    17133 1
   17846    17134    17135 1
   17847    17134    17150 1
   17848    17134    17151 1
   17849    17135    17136 1
   17850    17135    17142 1
   17851    17135    17152 1
   17852    17136    17137 1
   17853    17136    17153 1
   17854    17136    17154 1
   17855    17137    17138 1
   17856    17137    17155 1
   17857    17137    17156 1
   17858    17138    17139 1
   17859    17138    17157 1
   17860    17138    17158 1
   17861    17139    17140 1
   17862    17139    17159 1
   17863    17139    17160 1
   17864    17140    17141 1
   17865    17140    17161 1
   17866    17140    17162 1
   17867    17141    17163 1
   17868    17141    17164 1
   17869    17141    17165 1
   17870    17142    17143 1
   17871    17142    17166 1
   17872    17142    17167 1
   17873    17143    17144 1
   17874    17143    17168 1
   17875    17143    17169 1
   17876    17144    17145 1
   17877    17144    17170 1
   17878    17144    17171 1
   17879    17145    17146 1
   17880    17145    17172 1
   17881    17145    17173 1
   17882    17146    17147 1
   17883    17146    17174 1
   17884    17146    17175 1
   17885    17147    17148 1
   17886    17147    17176 1
   17887    17147    17177 1
   17888    17148    17149 1
   17889    17148    17178 1
   17890    17148    17179 1
   17891    17149    17180 1
   17892    17149    17181 1
   17893    17149    17182 1
   17894    17183    17184 1
   17895    17183    17190 1
   17896    17183    17206 1
   17897    17183    17255 1
   17898    17184    17185 1
   17899    17184    17188 1
   17900    17185    17186 1
   17901    17185    17189 1
   17902    17186    17187 1
   17903    17187    17188 1
   17904    17188    17194 1
   17905    17189    17190 1
   17906    17189    17193 1
   17907    17190    17191 1
   17908    17191    17192 1
   17909    17191    17195 1
   17910    17192    17193 1
   17911    17192    17198 1
   17912    17196    17197 1
   17913    17196    17204 1
   17914    17197    17198 1
   17915    17197    17205 1
   17916    17198    17199 1
   17917    17199    17200 1
   17918    17199    17203 1
   17919    17200    17201 1
   17920    17201    17202 1
   17921    17202    17203 1
   17922    17203    17204 1
   17923    17204    17308 1
   17924    17206    17207 1
   17925    17206    17222 1
   17926    17206    17223 1
   17927    17207    17208 1
   17928    17207    17214 1
   17929    17207    17224 1
   17930    17208    17209 1
   17931    17208    17225 1
   17932    17208    17226 1
   17933    17209    17210 1
   17934    17209    17227 1
   17935    17209    17228 1
   17936    17210    17211 1
   17937    17210    17229 1
   17938    17210    17230 1
   17939    17211    17212 1
   17940    17211    17231 1
   17941    17211    17232 1
   17942    17212    17213 1
   17943    17212    17233 1
   17944    17212    17234 1
   17945    17213    17235 1
   17946    17213    17236 1
   17947    17213    17237 1
   17948    17214    17215 1
   17949    17214    17238 1
   17950    17214    17239 1
   17951    17215    17216 1
   17952    17215    17240 1
   17953    17215    17241 1
   17954    17216    17217 1
   17955    17216    17242 1
   17956    17216    17243 1
   17957    17217    17218 1
   17958    17217    17244 1
   17959    17217    17245 1
   17960    17218    17219 1
   17961    17218    17246 1
   17962    17218    17247 1
   17963    17219    17220 1
   17964    17219    17248 1
   17965    17219    17249 1
   17966    17220    17221 1
   17967    17220    17250 1
   17968    17220    17251 1
   17969    17221    17252 1
   17970    17221    17253 1
   17971    17221    17254 1
   17972    17255    17256 1
   17973    17255    17271 1
   17974    17255    17272 1
   17975    17256    17257 1
   17976    17256    17263 1
   17977    17256    17273 1
   17978    17257    17258 1
   17979    17257    17274 1
   17980    17257    17275 1
   17981    17258    17259 1
   17982    17258    17276 1
   17983    17258    17277 1
   17984    17259    17260 1
   17985    17259    17278 1
   17986    17259    17279 1
   17987    17260    17261 1
   17988    17260    17280 1
   17989    17260    17281 1
   17990    17261    17262 1
   17991    17261    17282 1
   17992    17261    17283 1
   17993    17262    17284 1
   17994    17262    17285 1
   17995    17262    17286 1
   17996    17263    17264 1
   17997    17263    17287 1
   17998    17263    17288 1
   17999    17264    17265 1
   18000    17264    17289 1
   18001    17264    17290 1
   18002    17265    17266 1
   18003    17265    17291 1
   18004    17265    17292 1
   18005    17266    17267 1
   18006    17266    17293 1
   18007    17266    17294 1
   18008    17267    17268 1
   18009    17267    17295 1
   18010    17267    17296 1
   18011    17268    17269 1
   18012    17268    17297 1
   18013    17268    17298 1
   18014    17269    17270 1
   18015    17269    17299 1
   18016    17269    17300 1
   18017    17270    17301 1
   18018    17270    17302 1
   18019    17270    17303 1
   18020    17304    17305 1
   18021    17304    17311 1
   18022    17304    17327 1
   18023    17304    17376 1
   18024    17305    17306 1
   18025    17305    17309 1
   18026    17306    17307 1
   18027    17306    17310 1
   18028    17307    17308 1
   18029    17308    17309 1
   18030    17309    17315 1
   18031    17310    17311 1
   18032    17310    17314 1
   18033    17311    17312 1
   18034    17312    17313 1
   18035    17312    17316 1
   18036    17313    17314 1
   18037    17313    17319 1
   18038    17317    17318 1
   18039    17317    17325 1
   18040    17318    17319 1
   18041    17318    17326 1
   18042    17319    17320 1
   18043    17320    17321 1
   18044    17320    17324 1
   18045    17321    17322 1
   18046    17322    17323 1
   18047    17323    17324 1
   18048    17324    17325 1
   18049    17325    17429 1
   18050    17327    17328 1
   18051    17327    17343 1
   18052    17327    17344 1
   18053    17328    17329 1
   18054    17328    17335 1
   18055    17328    17345 1
   18056    17329    17330 1
   18057    17329    17346 1
   18058    17329    17347 1
   18059    17330    17331 1
   18060    17330    17348 1
   18061    17330    17349 1
   18062    17331    17332 1
   18063    17331    17350 1
   18064    17331    17351 1
   18065    17332    17333 1
   18066    17332    17352 1
   18067    17332    17353 1
   18068    17333    17334 1
   18069    17333    17354 1
   18070    17333    17355 1
   18071    17334    17356 1
   18072    17334    17357 1
   18073    17334    17358 1
   18074    17335    17336 1
   18075    17335    17359 1
   18076    17335    17360 1
   18077    17336    17337 1
   18078    17336    17361 1
   18079    17336    17362 1
   18080    17337    17338 1
   18081    17337    17363 1
   18082    17337    17364 1
   18083    17338    17339 1
   18084    17338    17365 1
   18085    17338    17366 1
   18086    17339    17340 1
   18087    17339    17367 1
   18088    17339    17368 1
   18089    17340    17341 1
   18090    17340    17369 1
   18091    17340    17370 1
   18092    17341    17342 1
   18093    17341    17371 1
   18094    17341    17372 1
   18095    17342    17373 1
   18096    17342    17374 1
   18097    17342    17375 1
   18098    17376    17377 1
   18099    17376    17392 1
   18100    17376    17393 1
   18101    17377    17378 1
   18102    17377    17384 1
   18103    17377    17394 1
   18104    17378    17379 1
   18105    17378    17395 1
   18106    17378    17396 1
   18107    17379    17380 1
   18108    17379    17397 1
   18109    17379    17398 1
   18110    17380    17381 1
   18111    17380    17399 1
   18112    17380    17400 1
   18113    17381    17382 1
   18114    17381    17401 1
   18115    17381    17402 1
   18116    17382    17383 1
   18117    17382    17403 1
   18118    17382    17404 1
   18119    17383    17405 1
   18120    17383    17406 1
   18121    17383    17407 1
   18122    17384    17385 1
   18123    17384    17408 1
   18124    17384    17409 1
   18125    17385    17386 1
   18126    17385    17410 1
   18127    17385    17411 1
   18128    17386    17387 1
   18129    17386    17412 1
   18130    17386    17413 1
   18131    17387    17388 1
   18132    17387    17414 1
   18133    17387    17415 1
   18134    17388    17389 1
   18135    17388    17416 1
   18136    17388    17417 1
   18137    17389    17390 1
   18138    17389    17418 1
   18139    17389    17419 1
   18140    17390    17391 1
   18141    17390    17420 1
   18142    17390    17421 1
   18143    17391    17422 1
   18144    17391    17423 1
   18145    17391    17424 1
   18146    17425    17426 1
   18147    17425    17432 1
   18148    17425    17448 1
   18149    17425    17497 1
   18150    17426    17427 1
   18151    17426    17430 1
   18152    17427    17428 1
   18153    17427    17431 1
   18154    17428    17429 1
   18155    17429    17430 1
   18156    17430    17436 1
   18157    17431    17432 1
   18158    17431    17435 1
   18159    17432    17433 1
   18160    17433    17434 1
   18161    17433    17437 1
   18162    17434    17435 1
   18163    17434    17440 1
   18164    17438    17439 1
   18165    17438    17446 1
   18166    17439    17440 1
   18167    17439    17447 1
   18168    17440    17441 1
   18169    17441    17442 1
   18170    17441    17445 1
   18171    17442    17443 1
   18172    17443    17444 1
   18173    17444    17445 1
   18174    17445    17446 1
   18175    17446    17550 1
   18176    17448    17449 1
   18177    17448    17464 1
   18178    17448    17465 1
   18179    17449    17450 1
   18180    17449    17456 1
   18181    17449    17466 1
   18182    17450    17451 1
   18183    17450    17467 1
   18184    17450    17468 1
   18185    17451    17452 1
   18186    17451    17469 1
   18187    17451    17470 1
   18188    17452    17453 1
   18189    17452    17471 1
   18190    17452    17472 1
   18191    17453    17454 1
   18192    17453    17473 1
   18193    17453    17474 1
   18194    17454    17455 1
   18195    17454    17475 1
   18196    17454    17476 1
   18197    17455    17477 1
   18198    17455    17478 1
   18199    17455    17479 1
   18200    17456    17457 1
   18201    17456    17480 1
   18202    17456    17481 1
   18203    17457    17458 1
   18204    17457    17482 1
   18205    17457    17483 1
   18206    17458    17459 1
   18207    17458    17484 1
   18208    17458    17485 1
   18209    17459    17460 1
   18210    17459    17486 1
   18211    17459    17487 1
   18212    17460    17461 1
   18213    17460    17488 1
   18214    17460    17489 1
   18215    17461    17462 1
   18216    17461    17490 1
   18217    17461    17491 1
   18218    17462    17463 1
   18219    17462    17492 1
   18220    17462    17493 1
   18221    17463    17494 1
   18222    17463    17495 1
   18223    17463    17496 1
   18224    17497    17498 1
   18225    17497    17513 1
   18226    17497    17514 1
   18227    17498    17499 1
   18228    17498    17505 1
   18229    17498    17515 1
   18230    17499    17500 1
   18231    17499    17516 1
   18232    17499    17517 1
   18233    17500    17501 1
   18234    17500    17518 1
   18235    17500    17519 1
   18236    17501    17502 1
   18237    17501    17520 1
   18238    17501    17521 1
   18239    17502    17503 1
   18240    17502    17522 1
   18241    17502    17523 1
   18242    17503    17504 1
   18243    17503    17524 1
   18244    17503    17525 1
   18245    17504    17526 1
   18246    17504    17527 1
   18247    17504    17528 1
   18248    17505    17506 1
   18249    17505    17529 1
   18250    17505    17530 1
   18251    17506    17507 1
   18252    17506    17531 1
   18253    17506    17532 1
   18254    17507    17508 1
   18255    17507    17533 1
   18256    17507    17534 1
   18257    17508    17509 1
   18258    17508    17535 1
   18259    17508    17536 1
   18260    17509    17510 1
   18261    17509    17537 1
   18262    17509    17538 1
   18263    17510    17511 1
   18264    17510    17539 1
   18265    17510    17540 1
   18266    17511    17512 1
   18267    17511    17541 1
   18268    17511    17542 1
   18269    17512    17543 1
   18270    17512    17544 1
   18271    17512    17545 1
   18272    17546    17547 1
   18273    17546    17553 1
   18274    17546    17569 1
   18275    17546    17618 1
   18276    17547    17548 1
   18277    17547    17551 1
   18278    17548    17549 1
   18279    17548    17552 1
   18280    17549    17550 1
   18281    17550    17551 1
   18282    17551    17557 1
   18283    17552    17553 1
   18284    17552    17556 1
   18285    17553    17554 1
   18286    17554    17555 1
   18287    17554    17558 1
   18288    17555    17556 1
   18289    17555    17561 1
   18290    17559    17560 1
   18291    17559    17567 1
   18292    17560    17561 1
   18293    17560    17568 1
   18294    17561    17562 1
   18295    17562    17563 1
   18296    17562    17566 1
   18297    17563    17564 1
   18298    17564    17565 1
   18299    17565    17566 1
   18300    17566    17567 1
   18301    17567    17671 1
   18302    17569    17570 1
   18303    17569    17585 1
   18304    17569    17586 1
   18305    17570    17571 1
   18306    17570    17577 1
   18307    17570    17587 1
   18308    17571    17572 1
   18309    17571    17588 1
   18310    17571    17589 1
   18311    17572    17573 1
   18312    17572    17590 1
   18313    17572    17591 1
   18314    17573    17574 1
   18315    17573    17592 1
   18316    17573    17593 1
   18317    17574    17575 1
   18318    17574    17594 1
   18319    17574    17595 1
   18320    17575    17576 1
   18321    17575    17596 1
   18322    17575    17597 1
   18323    17576    17598 1
   18324    17576    17599 1
   18325    17576    17600 1
   18326    17577    17578 1
   18327    17577    17601 1
   18328    17577    17602 1
   18329    17578    17579 1
   18330    17578    17603 1
   18331    17578    17604 1
   18332    17579    17580 1
   18333    17579    17605 1
   18334    17579    17606 1
   18335    17580    17581 1
   18336    17580    17607 1
   18337    17580    17608 1
   18338    17581    17582 1
   18339    17581    17609 1
   18340    17581    17610 1
   18341    17582    17583 1
   18342    17582    17611 1
   18343    17582    17612 1
   18344    17583    17584 1
   18345    17583    17613 1
   18346    17583    17614 1
   18347    17584    17615 1
   18348    17584    17616 1
   18349    17584    17617 1
   18350    17618    17619 1
   18351    17618    17634 1
   18352    17618    17635 1
   18353    17619    17620 1
   18354    17619    17626 1
   18355    17619    17636 1
   18356    17620    17621 1
   18357    17620    17637 1
   18358    17620    17638 1
   18359    17621    17622 1
   18360    17621    17639 1
   18361    17621    17640 1
   18362    17622    17623 1
   18363    17622    17641 1
   18364    17622    17642 1
   18365    17623    17624 1
   18366    17623    17643 1
   18367    17623    17644 1
   18368    17624    17625 1
   18369    17624    17645 1
   18370    17624    17646 1
   18371    17625    17647 1
   18372    17625    17648 1
   18373    17625    17649 1
   18374    17626    17627 1
   18375    17626    17650 1
   18376    17626    17651 1
   18377    17627    17628 1
   18378    17627    17652 1
   18379    17627    17653 1
   18380    17628    17629 1
   18381    17628    17654 1
   18382    17628    17655 1
   18383    17629    17630 1
   18384    17629    17656 1
   18385    17629    17657 1
   18386    17630    17631 1
   18387    17630    17658 1
   18388    17630    17659 1
   18389    17631    17632 1
   18390    17631    17660 1
   18391    17631    17661 1
   18392    17632    17633 1
   18393    17632    17662 1
   18394    17632    17663 1
   18395    17633    17664 1
   18396    17633    17665 1
   18397    17633    17666 1
   18398    17667    17668 1
   18399    17667    17674 1
   18400    17667    17690 1
   18401    17667    17739 1
   18402    17668    17669 1
   18403    17668    17672 1
   18404    17669    17670 1
   18405    17669    17673 1
   18406    17670    17671 1
   18407    17671    17672 1
   18408    17672    17678 1
   18409    17673    17674 1
   18410    17673    17677 1
   18411    17674    17675 1
   18412    17675    17676 1
   18413    17675    17679 1
   18414    17676    17677 1
   18415    17676    17682 1
   18416    17680    17681 1
   18417    17680    17688 1
   18418    17681    17682 1
   18419    17681    17689 1
   18420    17682    17683 1
   18421    17683    17684 1
   18422    17683    17687 1
   18423    17684    17685 1
   18424    17685    17686 1
   18425    17686    17687 1
   18426    17687    17688 1
   18427    17688    17792 1
   18428    17690    17691 1
   18429    17690    17706 1
   18430    17690    17707 1
   18431    17691    17692 1
   18432    17691    17698 1
   18433    17691    17708 1
   18434    17692    17693 1
   18435    17692    17709 1
   18436    17692    17710 1
   18437    17693    17694 1
   18438    17693    17711 1
   18439    17693    17712 1
   18440    17694    17695 1
   18441    17694    17713 1
   18442    17694    17714 1
   18443    17695    17696 1
   18444    17695    17715 1
   18445    17695    17716 1
   18446    17696    17697 1
   18447    17696    17717 1
   18448    17696    17718 1
   18449    17697    17719 1
   18450    17697    17720 1
   18451    17697    17721 1
   18452    17698    17699 1
   18453    17698    17722 1
   18454    17698    17723 1
   18455    17699    17700 1
   18456    17699    17724 1
   18457    17699    17725 1
   18458    17700    17701 1
   18459    17700    17726 1
   18460    17700    17727 1
   18461    17701    17702 1
   18462    17701    17728 1
   18463    17701    17729 1
   18464    17702    17703 1
   18465    17702    17730 1
   18466    17702    17731 1
   18467    17703    17704 1
   18468    17703    17732 1
   18469    17703    17733 1
   18470    17704    17705 1
   18471    17704    17734 1
   18472    17704    17735 1
   18473    17705    17736 1
   18474    17705    17737 1
   18475    17705    17738 1
   18476    17739    17740 1
   18477    17739    17755 1
   18478    17739    17756 1
   18479    17740    17741 1
   18480    17740    17747 1
   18481    17740    17757 1
   18482    17741    17742 1
   18483    17741    17758 1
   18484    17741    17759 1
   18485    17742    17743 1
   18486    17742    17760 1
   18487    17742    17761 1
   18488    17743    17744 1
   18489    17743    17762 1
   18490    17743    17763 1
   18491    17744    17745 1
   18492    17744    17764 1
   18493    17744    17765 1
   18494    17745    17746 1
   18495    17745    17766 1
   18496    17745    17767 1
   18497    17746    17768 1
   18498    17746    17769 1
   18499    17746    17770 1
   18500    17747    17748 1
   18501    17747    17771 1
   18502    17747    17772 1
   18503    17748    17749 1
   18504    17748    17773 1
   18505    17748    17774 1
   18506    17749    17750 1
   18507    17749    17775 1
   18508    17749    17776 1
   18509    17750    17751 1
   18510    17750    17777 1
   18511    17750    17778 1
   18512    17751    17752 1
   18513    17751    17779 1
   18514    17751    17780 1
   18515    17752    17753 1
   18516    17752    17781 1
   18517    17752    17782 1
   18518    17753    17754 1
   18519    17753    17783 1
   18520    17753    17784 1
   18521    17754    17785 1
   18522    17754    17786 1
   18523    17754    17787 1
   18524    17788    17789 1
   18525    17788    17795 1
   18526    17788    17811 1
   18527    17788    17860 1
   18528    17789    17790 1
   18529    17789    17793 1
   18530    17790    17791 1
   18531    17790    17794 1
   18532    17791    17792 1
   18533    17792    17793 1
   18534    17793    17799 1
   18535    17794    17795 1
   18536    17794    17798 1
   18537    17795    17796 1
   18538    17796    17797 1
   18539    17796    17800 1
   18540    17797    17798 1
   18541    17797    17803 1
   18542    17801    17802 1
   18543    17801    17809 1
   18544    17802    17803 1
   18545    17802    17810 1
   18546    17803    17804 1
   18547    17804    17805 1
   18548    17804    17808 1
   18549    17805    17806 1
   18550    17806    17807 1
   18551    17807    17808 1
   18552    17808    17809 1
   18553    17809    17913 1
   18554    17811    17812 1
   18555    17811    17827 1
   18556    17811    17828 1
   18557    17812    17813 1
   18558    17812    17819 1
   18559    17812    17829 1
   18560    17813    17814 1
   18561    17813    17830 1
   18562    17813    17831 1
   18563    17814    17815 1
   18564    17814    17832 1
   18565    17814    17833 1
   18566    17815    17816 1
   18567    17815    17834 1
   18568    17815    17835 1
   18569    17816    17817 1
   18570    17816    17836 1
   18571    17816    17837 1
   18572    17817    17818 1
   18573    17817    17838 1
   18574    17817    17839 1
   18575    17818    17840 1
   18576    17818    17841 1
   18577    17818    17842 1
   18578    17819    17820 1
   18579    17819    17843 1
   18580    17819    17844 1
   18581    17820    17821 1
   18582    17820    17845 1
   18583    17820    17846 1
   18584    17821    17822 1
   18585    17821    17847 1
   18586    17821    17848 1
   18587    17822    17823 1
   18588    17822    17849 1
   18589    17822    17850 1
   18590    17823    17824 1
   18591    17823    17851 1
   18592    17823    17852 1
   18593    17824    17825 1
   18594    17824    17853 1
   18595    17824    17854 1
   18596    17825    17826 1
   18597    17825    17855 1
   18598    17825    17856 1
   18599    17826    17857 1
   18600    17826    17858 1
   18601    17826    17859 1
   18602    17860    17861 1
   18603    17860    17876 1
   18604    17860    17877 1
   18605    17861    17862 1
   18606    17861    17868 1
   18607    17861    17878 1
   18608    17862    17863 1
   18609    17862    17879 1
   18610    17862    17880 1
   18611    17863    17864 1
   18612    17863    17881 1
   18613    17863    17882 1
   18614    17864    17865 1
   18615    17864    17883 1
   18616    17864    17884 1
   18617    17865    17866 1
   18618    17865    17885 1
   18619    17865    17886 1
   18620    17866    17867 1
   18621    17866    17887 1
   18622    17866    17888 1
   18623    17867    17889 1
   18624    17867    17890 1
   18625    17867    17891 1
   18626    17868    17869 1
   18627    17868    17892 1
   18628    17868    17893 1
   18629    17869    17870 1
   18630    17869    17894 1
   18631    17869    17895 1
   18632    17870    17871 1
   18633    17870    17896 1
   18634    17870    17897 1
   18635    17871    17872 1
   18636    17871    17898 1
   18637    17871    17899 1
   18638    17872    17873 1
   18639    17872    17900 1
   18640    17872    17901 1
   18641    17873    17874 1
   18642    17873    17902 1
   18643    17873    17903 1
   18644    17874    17875 1
   18645    17874    17904 1
   18646    17874    17905 1
   18647    17875    17906 1
   18648    17875    17907 1
   18649    17875    17908 1
   18650    17909    17910 1
   18651    17909    17916 1
   18652    17909    17932 1
   18653    17909    17981 1
   18654    17910    17911 1
   18655    17910    17914 1
   18656    17911    17912 1
   18657    17911    17915 1
   18658    17912    17913 1
   18659    17913    17914 1
   18660    17914    17920 1
   18661    17915    17916 1
   18662    17915    17919 1
   18663    17916    17917 1
   18664    17917    17918 1
   18665    17917    17921 1
   18666    17918    17919 1
   18667    17918    17924 1
   18668    17922    17923 1
   18669    17922    17930 1
   18670    17923    17924 1
   18671    17923    17931 1
   18672    17924    17925 1
   18673    17925    17926 1
   18674    17925    17929 1
   18675    17926    17927 1
   18676    17927    17928 1
   18677    17928    17929 1
   18678    17929    17930 1
   18679    17930    18034 1
   18680    17932    17933 1
   18681    17932    17948 1
   18682    17932    17949 1
   18683    17933    17934 1
   18684    17933    17940 1
   18685    17933    17950 1
   18686    17934    17935 1
   18687    17934    17951 1
   18688    17934    17952 1
   18689    17935    17936 1
   18690    17935    17953 1
   18691    17935    17954 1
   18692    17936    17937 1
   18693    17936    17955 1
   18694    17936    17956 1
   18695    17937    17938 1
   18696    17937    17957 1
   18697    17937    17958 1
   18698    17938    17939 1
   18699    17938    17959 1
   18700    17938    17960 1
   18701    17939    17961 1
   18702    17939    17962 1
   18703    17939    17963 1
   18704    17940    17941 1
   18705    17940    17964 1
   18706    17940    17965 1
   18707    17941    17942 1
   18708    17941    17966 1
   18709    17941    17967 1
   18710    17942    17943 1
   18711    17942    17968 1
   18712    17942    17969 1
   18713    17943    17944 1
   18714    17943    17970 1
   18715    17943    17971 1
   18716    17944    17945 1
   18717    17944    17972 1
   18718    17944    17973 1
   18719    17945    17946 1
   18720    17945    17974 1
   18721    17945    17975 1
   18722    17946    17947 1
   18723    17946    17976 1
   18724    17946    17977 1
   18725    17947    17978 1
   18726    17947    17979 1
   18727    17947    17980 1
   18728    17981    17982 1
   18729    17981    17997 1
   18730    17981    17998 1
   18731    17982    17983 1
   18732    17982    17989 1
   18733    17982    17999 1
   18734    17983    17984 1
   18735    17983    18000 1
   18736    17983    18001 1
   18737    17984    17985 1
   18738    17984    18002 1
   18739    17984    18003 1
   18740    17985    17986 1
   18741    17985    18004 1
   18742    17985    18005 1
   18743    17986    17987 1
   18744    17986    18006 1
   18745    17986    18007 1
   18746    17987    17988 1
   18747    17987    18008 1
   18748    17987    18009 1
   18749    17988    18010 1
   18750    17988    18011 1
   18751    17988    18012 1
   18752    17989    17990 1
   18753    17989    18013 1
   18754    17989    18014 1
   18755    17990    17991 1
   18756    17990    18015 1
   18757    17990    18016 1
   18758    17991    17992 1
   18759    17991    18017 1
   18760    17991    18018 1
   18761    17992    17993 1
   18762    17992    18019 1
   18763    17992    18020 1
   18764    17993    17994 1
   18765    17993    18021 1
   18766    17993    18022 1
   18767    17994    17995 1
   18768    17994    18023 1
   18769    17994    18024 1
   18770    17995    17996 1
   18771    17995    18025 1
   18772    17995    18026 1
   18773    17996    18027 1
   18774    17996    18028 1
   18775    17996    18029 1
   18776    18030    18031 1
   18777    18030    18037 1
   18778    18030    18053 1
   18779    18030    18102 1
   18780    18031    18032 1
   18781    18031    18035 1
   18782    18032    18033 1
   18783    18032    18036 1
   18784    18033    18034 1
   18785    18034    18035 1
   18786    18035    18041 1
   18787    18036    18037 1
   18788    18036    18040 1
   18789    18037    18038 1
   18790    18038    18039 1
   18791    18038    18042 1
   18792    18039    18040 1
   18793    18039    18045 1
   18794    18043    18044 1
   18795    18043    18051 1
   18796    18044    18045 1
   18797    18044    18052 1
   18798    18045    18046 1
   18799    18046    18047 1
   18800    18046    18050 1
   18801    18047    18048 1
   18802    18048    18049 1
   18803    18049    18050 1
   18804    18050    18051 1
   18805    18051    18155 1
   18806    18053    18054 1
   18807    18053    18069 1
   18808    18053    18070 1
   18809    18054    18055 1
   18810    18054    18061 1
   18811    18054    18071 1
   18812    18055    18056 1
   18813    18055    18072 1
   18814    18055    18073 1
   18815    18056    18057 1
   18816    18056    18074 1
   18817    18056    18075 1
   18818    18057    18058 1
   18819    18057    18076 1
   18820    18057    18077 1
   18821    18058    18059 1
   18822    18058    18078 1
   18823    18058    18079 1
   18824    18059    18060 1
   18825    18059    18080 1
   18826    18059    18081 1
   18827    18060    18082 1
   18828    18060    18083 1
   18829    18060    18084 1
   18830    18061    18062 1
   18831    18061    18085 1
   18832    18061    18086 1
   18833    18062    18063 1
   18834    18062    18087 1
   18835    18062    18088 1
   18836    18063    18064 1
   18837    18063    18089 1
   18838    18063    18090 1
   18839    18064    18065 1
   18840    18064    18091 1
   18841    18064    18092 1
   18842    18065    18066 1
   18843    18065    18093 1
   18844    18065    18094 1
   18845    18066    18067 1
   18846    18066    18095 1
   18847    18066    18096 1
   18848    18067    18068 1
   18849    18067    18097 1
   18850    18067    18098 1
   18851    18068    18099 1
   18852    18068    18100 1
   18853    18068    18101 1
   18854    18102    18103 1
   18855    18102    18118 1
   18856    18102    18119 1
   18857    18103    18104 1
   18858    18103    18110 1
   18859    18103    18120 1
   18860    18104    18105 1
   18861    18104    18121 1
   18862    18104    18122 1
   18863    18105    18106 1
   18864    18105    18123 1
   18865    18105    18124 1
   18866    18106    18107 1
   18867    18106    18125 1
   18868    18106    18126 1
   18869    18107    18108 1
   18870    18107    18127 1
   18871    18107    18128 1
   18872    18108    18109 1
   18873    18108    18129 1
   18874    18108    18130 1
   18875    18109    18131 1
   18876    18109    18132 1
   18877    18109    18133 1
   18878    18110    18111 1
   18879    18110    18134 1
   18880    18110    18135 1
   18881    18111    18112 1
   18882    18111    18136 1
   18883    18111    18137 1
   18884    18112    18113 1
   18885    18112    18138 1
   18886    18112    18139 1
   18887    18113    18114 1
   18888    18113    18140 1
   18889    18113    18141 1
   18890    18114    18115 1
   18891    18114    18142 1
   18892    18114    18143 1
   18893    18115    18116 1
   18894    18115    18144 1
   18895    18115    18145 1
   18896    18116    18117 1
   18897    18116    18146 1
   18898    18116    18147 1
   18899    18117    18148 1
   18900    18117    18149 1
   18901    18117    18150 1
   18902    18151    18152 1
   18903    18151    18158 1
   18904    18151    18174 1
   18905    18151    18223 1
   18906    18152    18153 1
   18907    18152    18156 1
   18908    18153    18154 1
   18909    18153    18157 1
   18910    18154    18155 1
   18911    18155    18156 1
   18912    18156    18162 1
   18913    18157    18158 1
   18914    18157    18161 1
   18915    18158    18159 1
   18916    18159    18160 1
   18917    18159    18163 1
   18918    18160    18161 1
   18919    18160    18166 1
   18920    18164    18165 1
   18921    18164    18172 1
   18922    18165    18166 1
   18923    18165    18173 1
   18924    18166    18167 1
   18925    18167    18168 1
   18926    18167    18171 1
   18927    18168    18169 1
   18928    18169    18170 1
   18929    18170    18171 1
   18930    18171    18172 1
   18931    18172    18276 1
   18932    18174    18175 1
   18933    18174    18190 1
   18934    18174    18191 1
   18935    18175    18176 1
   18936    18175    18182 1
   18937    18175    18192 1
   18938    18176    18177 1
   18939    18176    18193 1
   18940    18176    18194 1
   18941    18177    18178 1
   18942    18177    18195 1
   18943    18177    18196 1
   18944    18178    18179 1
   18945    18178    18197 1
   18946    18178    18198 1
   18947    18179    18180 1
   18948    18179    18199 1
   18949    18179    18200 1
   18950    18180    18181 1
   18951    18180    18201 1
   18952    18180    18202 1
   18953    18181    18203 1
   18954    18181    18204 1
   18955    18181    18205 1
   18956    18182    18183 1
   18957    18182    18206 1
   18958    18182    18207 1
   18959    18183    18184 1
   18960    18183    18208 1
   18961    18183    18209 1
   18962    18184    18185 1
   18963    18184    18210 1
   18964    18184    18211 1
   18965    18185    18186 1
   18966    18185    18212 1
   18967    18185    18213 1
   18968    18186    18187 1
   18969    18186    18214 1
   18970    18186    18215 1
   18971    18187    18188 1
   18972    18187    18216 1
   18973    18187    18217 1
   18974    18188    18189 1
   18975    18188    18218 1
   18976    18188    18219 1
   18977    18189    18220 1
   18978    18189    18221 1
   18979    18189    18222 1
   18980    18223    18224 1
   18981    18223    18239 1
   18982    18223    18240 1
   18983    18224    18225 1
   18984    18224    18231 1
   18985    18224    18241 1
   18986    18225    18226 1
   18987    18225    18242 1
   18988    18225    18243 1
   18989    18226    18227 1
   18990    18226    18244 1
   18991    18226    18245 1
   18992    18227    18228 1
   18993    18227    18246 1
   18994    18227    18247 1
   18995    18228    18229 1
   18996    18228    18248 1
   18997    18228    18249 1
   18998    18229    18230 1
   18999    18229    18250 1
   19000    18229    18251 1
   19001    18230    18252 1
   19002    18230    18253 1
   19003    18230    18254 1
   19004    18231    18232 1
   19005    18231    18255 1
   19006    18231    18256 1
   19007    18232    18233 1
   19008    18232    18257 1
   19009    18232    18258 1
   19010    18233    18234 1
   19011    18233    18259 1
   19012    18233    18260 1
   19013    18234    18235 1
   19014    18234    18261 1
   19015    18234    18262 1
   19016    18235    18236 1
   19017    18235    18263 1
   19018    18235    18264 1
   19019    18236    18237 1
   19020    18236    18265 1
   19021    18236    18266 1
   19022    18237    18238 1
   19023    18237    18267 1
   19024    18237    18268 1
   19025    18238    18269 1
   19026    18238    18270 1
   19027    18238    18271 1
   19028    18272    18273 1
   19029    18272    18279 1
   19030    18272    18295 1
   19031    18272    18344 1
   19032    18273    18274 1
   19033    18273    18277 1
   19034    18274    18275 1
   19035    18274    18278 1
   19036    18275    18276 1
   19037    18276    18277 1
   19038    18277    18283 1
   19039    18278    18279 1
   19040    18278    18282 1
   19041    18279    18280 1
   19042    18280    18281 1
   19043    18280    18284 1
   19044    18281    18282 1
   19045    18281    18287 1
   19046    18285    18286 1
   19047    18285    18293 1
   19048    18286    18287 1
   19049    18286    18294 1
   19050    18287    18288 1
   19051    18288    18289 1
   19052    18288    18292 1
   19053    18289    18290 1
   19054    18290    18291 1
   19055    18291    18292 1
   19056    18292    18293 1
   19057    18293    18397 1
   19058    18295    18296 1
   19059    18295    18311 1
   19060    18295    18312 1
   19061    18296    18297 1
   19062    18296    18303 1
   19063    18296    18313 1
   19064    18297    18298 1
   19065    18297    18314 1
   19066    18297    18315 1
   19067    18298    18299 1
   19068    18298    18316 1
   19069    18298    18317 1
   19070    18299    18300 1
   19071    18299    18318 1
   19072    18299    18319 1
   19073    18300    18301 1
   19074    18300    18320 1
   19075    18300    18321 1
   19076    18301    18302 1
   19077    18301    18322 1
   19078    18301    18323 1
   19079    18302    18324 1
   19080    18302    18325 1
   19081    18302    18326 1
   19082    18303    18304 1
   19083    18303    18327 1
   19084    18303    18328 1
   19085    18304    18305 1
   19086    18304    18329 1
   19087    18304    18330 1
   19088    18305    18306 1
   19089    18305    18331 1
   19090    18305    18332 1
   19091    18306    18307 1
   19092    18306    18333 1
   19093    18306    18334 1
   19094    18307    18308 1
   19095    18307    18335 1
   19096    18307    18336 1
   19097    18308    18309 1
   19098    18308    18337 1
   19099    18308    18338 1
   19100    18309    18310 1
   19101    18309    18339 1
   19102    18309    18340 1
   19103    18310    18341 1
   19104    18310    18342 1
   19105    18310    18343 1
   19106    18344    18345 1
   19107    18344    18360 1
   19108    18344    18361 1
   19109    18345    18346 1
   19110    18345    18352 1
   19111    18345    18362 1
   19112    18346    18347 1
   19113    18346    18363 1
   19114    18346    18364 1
   19115    18347    18348 1
   19116    18347    18365 1
   19117    18347    18366 1
   19118    18348    18349 1
   19119    18348    18367 1
   19120    18348    18368 1
   19121    18349    18350 1
   19122    18349    18369 1
   19123    18349    18370 1
   19124    18350    18351 1
   19125    18350    18371 1
   19126    18350    18372 1
   19127    18351    18373 1
   19128    18351    18374 1
   19129    18351    18375 1
   19130    18352    18353 1
   19131    18352    18376 1
   19132    18352    18377 1
   19133    18353    18354 1
   19134    18353    18378 1
   19135    18353    18379 1
   19136    18354    18355 1
   19137    18354    18380 1
   19138    18354    18381 1
   19139    18355    18356 1
   19140    18355    18382 1
   19141    18355    18383 1
   19142    18356    18357 1
   19143    18356    18384 1
   19144    18356    18385 1
   19145    18357    18358 1
   19146    18357    18386 1
   19147    18357    18387 1
   19148    18358    18359 1
   19149    18358    18388 1
   19150    18358    18389 1
   19151    18359    18390 1
   19152    18359    18391 1
   19153    18359    18392 1
   19154    18393    18394 1
   19155    18393    18400 1
   19156    18393    18416 1
   19157    18393    18465 1
   19158    18394    18395 1
   19159    18394    18398 1
   19160    18395    18396 1
   19161    18395    18399 1
   19162    18396    18397 1
   19163    18397    18398 1
   19164    18398    18404 1
   19165    18399    18400 1
   19166    18399    18403 1
   19167    18400    18401 1
   19168    18401    18402 1
   19169    18401    18405 1
   19170    18402    18403 1
   19171    18402    18408 1
   19172    18406    18407 1
   19173    18406    18414 1
   19174    18407    18408 1
   19175    18407    18415 1
   19176    18408    18409 1
   19177    18409    18410 1
   19178    18409    18413 1
   19179    18410    18411 1
   19180    18411    18412 1
   19181    18412    18413 1
   19182    18413    18414 1
   19183    18414    18518 1
   19184    18416    18417 1
   19185    18416    18432 1
   19186    18416    18433 1
   19187    18417    18418 1
   19188    18417    18424 1
   19189    18417    18434 1
   19190    18418    18419 1
   19191    18418    18435 1
   19192    18418    18436 1
   19193    18419    18420 1
   19194    18419    18437 1
   19195    18419    18438 1
   19196    18420    18421 1
   19197    18420    18439 1
   19198    18420    18440 1
   19199    18421    18422 1
   19200    18421    18441 1
   19201    18421    18442 1
   19202    18422    18423 1
   19203    18422    18443 1
   19204    18422    18444 1
   19205    18423    18445 1
   19206    18423    18446 1
   19207    18423    18447 1
   19208    18424    18425 1
   19209    18424    18448 1
   19210    18424    18449 1
   19211    18425    18426 1
   19212    18425    18450 1
   19213    18425    18451 1
   19214    18426    18427 1
   19215    18426    18452 1
   19216    18426    18453 1
   19217    18427    18428 1
   19218    18427    18454 1
   19219    18427    18455 1
   19220    18428    18429 1
   19221    18428    18456 1
   19222    18428    18457 1
   19223    18429    18430 1
   19224    18429    18458 1
   19225    18429    18459 1
   19226    18430    18431 1
   19227    18430    18460 1
   19228    18430    18461 1
   19229    18431    18462 1
   19230    18431    18463 1
   19231    18431    18464 1
   19232    18465    18466 1
   19233    18465    18481 1
   19234    18465    18482 1
   19235    18466    18467 1
   19236    18466    18473 1
   19237    18466    18483 1
   19238    18467    18468 1
   19239    18467    18484 1
   19240    18467    18485 1
   19241    18468    18469 1
   19242    18468    18486 1
   19243    18468    18487 1
   19244    18469    18470 1
   19245    18469    18488 1
   19246    18469    18489 1
   19247    18470    18471 1
   19248    18470    18490 1
   19249    18470    18491 1
   19250    18471    18472 1
   19251    18471    18492 1
   19252    18471    18493 1
   19253    18472    18494 1
   19254    18472    18495 1
   19255    18472    18496 1
   19256    18473    18474 1
   19257    18473    18497 1
   19258    18473    18498 1
   19259    18474    18475 1
   19260    18474    18499 1
   19261    18474    18500 1
   19262    18475    18476 1
   19263    18475    18501 1
   19264    18475    18502 1
   19265    18476    18477 1
   19266    18476    18503 1
   19267    18476    18504 1
   19268    18477    18478 1
   19269    18477    18505 1
   19270    18477    18506 1
   19271    18478    18479 1
   19272    18478    18507 1
   19273    18478    18508 1
   19274    18479    18480 1
   19275    18479    18509 1
   19276    18479    18510 1
   19277    18480    18511 1
   19278    18480    18512 1
   19279    18480    18513 1
   19280    18514    18515 1
   19281    18514    18521 1
   19282    18514    18537 1
   19283    18514    18586 1
   19284    18515    18516 1
   19285    18515    18519 1
   19286    18516    18517 1
   19287    18516    18520 1
   19288    18517    18518 1
   19289    18518    18519 1
   19290    18519    18525 1
   19291    18520    18521 1
   19292    18520    18524 1
   19293    18521    18522 1
   19294    18522    18523 1
   19295    18522    18526 1
   19296    18523    18524 1
   19297    18523    18529 1
   19298    18527    18528 1
   19299    18527    18535 1
   19300    18528    18529 1
   19301    18528    18536 1
   19302    18529    18530 1
   19303    18530    18531 1
   19304    18530    18534 1
   19305    18531    18532 1
   19306    18532    18533 1
   19307    18533    18534 1
   19308    18534    18535 1
   19309    18535    18639 1
   19310    18537    18538 1
   19311    18537    18553 1
   19312    18537    18554 1
   19313    18538    18539 1
   19314    18538    18545 1
   19315    18538    18555 1
   19316    18539    18540 1
   19317    18539    18556 1
   19318    18539    18557 1
   19319    18540    18541 1
   19320    18540    18558 1
   19321    18540    18559 1
   19322    18541    18542 1
   19323    18541    18560 1
   19324    18541    18561 1
   19325    18542    18543 1
   19326    18542    18562 1
   19327    18542    18563 1
   19328    18543    18544 1
   19329    18543    18564 1
   19330    18543    18565 1
   19331    18544    18566 1
   19332    18544    18567 1
   19333    18544    18568 1
   19334    18545    18546 1
   19335    18545    18569 1
   19336    18545    18570 1
   19337    18546    18547 1
   19338    18546    18571 1
   19339    18546    18572 1
   19340    18547    18548 1
   19341    18547    18573 1
   19342    18547    18574 1
   19343    18548    18549 1
   19344    18548    18575 1
   19345    18548    18576 1
   19346    18549    18550 1
   19347    18549    18577 1
   19348    18549    18578 1
   19349    18550    18551 1
   19350    18550    18579 1
   19351    18550    18580 1
   19352    18551    18552 1
   19353    18551    18581 1
   19354    18551    18582 1
   19355    18552    18583 1
   19356    18552    18584 1
   19357    18552    18585 1
   19358    18586    18587 1
   19359    18586    18602 1
   19360    18586    18603 1
   19361    18587    18588 1
   19362    18587    18594 1
   19363    18587    18604 1
   19364    18588    18589 1
   19365    18588    18605 1
   19366    18588    18606 1
   19367    18589    18590 1
   19368    18589    18607 1
   19369    18589    18608 1
   19370    18590    18591 1
   19371    18590    18609 1
   19372    18590    18610 1
   19373    18591    18592 1
   19374    18591    18611 1
   19375    18591    18612 1
   19376    18592    18593 1
   19377    18592    18613 1
   19378    18592    18614 1
   19379    18593    18615 1
   19380    18593    18616 1
   19381    18593    18617 1
   19382    18594    18595 1
   19383    18594    18618 1
   19384    18594    18619 1
   19385    18595    18596 1
   19386    18595    18620 1
   19387    18595    18621 1
   19388    18596    18597 1
   19389    18596    18622 1
   19390    18596    18623 1
   19391    18597    18598 1
   19392    18597    18624 1
   19393    18597    18625 1
   19394    18598    18599 1
   19395    18598    18626 1
   19396    18598    18627 1
   19397    18599    18600 1
   19398    18599    18628 1
   19399    18599    18629 1
   19400    18600    18601 1
   19401    18600    18630 1
   19402    18600    18631 1
   19403    18601    18632 1
   19404    18601    18633 1
   19405    18601    18634 1
   19406    18635    18636 1
   19407    18635    18642 1
   19408    18635    18658 1
   19409    18635    18707 1
   19410    18636    18637 1
   19411    18636    18640 1
   19412    18637    18638 1
   19413    18637    18641 1
   19414    18638    18639 1
   19415    18639    18640 1
   19416    18640    18646 1
   19417    18641    18642 1
   19418    18641    18645 1
   19419    18642    18643 1
   19420    18643    18644 1
   19421    18643    18647 1
   19422    18644    18645 1
   19423    18644    18650 1
   19424    18648    18649 1
   19425    18648    18656 1
   19426    18649    18650 1
   19427    18649    18657 1
   19428    18650    18651 1
   19429    18651    18652 1
   19430    18651    18655 1
   19431    18652    18653 1
   19432    18653    18654 1
   19433    18654    18655 1
   19434    18655    18656 1
   19435    18656    18760 1
   19436    18658    18659 1
   19437    18658    18674 1
   19438    18658    18675 1
   19439    18659    18660 1
   19440    18659    18666 1
   19441    18659    18676 1
   19442    18660    18661 1
   19443    18660    18677 1
   19444    18660    18678 1
   19445    18661    18662 1
   19446    18661    18679 1
   19447    18661    18680 1
   19448    18662    18663 1
   19449    18662    18681 1
   19450    18662    18682 1
   19451    18663    18664 1
   19452    18663    18683 1
   19453    18663    18684 1
   19454    18664    18665 1
   19455    18664    18685 1
   19456    18664    18686 1
   19457    18665    18687 1
   19458    18665    18688 1
   19459    18665    18689 1
   19460    18666    18667 1
   19461    18666    18690 1
   19462    18666    18691 1
   19463    18667    18668 1
   19464    18667    18692 1
   19465    18667    18693 1
   19466    18668    18669 1
   19467    18668    18694 1
   19468    18668    18695 1
   19469    18669    18670 1
   19470    18669    18696 1
   19471    18669    18697 1
   19472    18670    18671 1
   19473    18670    18698 1
   19474    18670    18699 1
   19475    18671    18672 1
   19476    18671    18700 1
   19477    18671    18701 1
   19478    18672    18673 1
   19479    18672    18702 1
   19480    18672    18703 1
   19481    18673    18704 1
   19482    18673    18705 1
   19483    18673    18706 1
   19484    18707    18708 1
   19485    18707    18723 1
   19486    18707    18724 1
   19487    18708    18709 1
   19488    18708    18715 1
   19489    18708    18725 1
   19490    18709    18710 1
   19491    18709    18726 1
   19492    18709    18727 1
   19493    18710    18711 1
   19494    18710    18728 1
   19495    18710    18729 1
   19496    18711    18712 1
   19497    18711    18730 1
   19498    18711    18731 1
   19499    18712    18713 1
   19500    18712    18732 1
   19501    18712    18733 1
   19502    18713    18714 1
   19503    18713    18734 1
   19504    18713    18735 1
   19505    18714    18736 1
   19506    18714    18737 1
   19507    18714    18738 1
   19508    18715    18716 1
   19509    18715    18739 1
   19510    18715    18740 1
   19511    18716    18717 1
   19512    18716    18741 1
   19513    18716    18742 1
   19514    18717    18718 1
   19515    18717    18743 1
   19516    18717    18744 1
   19517    18718    18719 1
   19518    18718    18745 1
   19519    18718    18746 1
   19520    18719    18720 1
   19521    18719    18747 1
   19522    18719    18748 1
   19523    18720    18721 1
   19524    18720    18749 1
   19525    18720    18750 1
   19526    18721    18722 1
   19527    18721    18751 1
   19528    18721    18752 1
   19529    18722    18753 1
   19530    18722    18754 1
   19531    18722    18755 1
   19532    18756    18757 1
   19533    18756    18763 1
   19534    18756    18779 1
   19535    18756    18828 1
   19536    18757    18758 1
   19537    18757    18761 1
   19538    18758    18759 1
   19539    18758    18762 1
   19540    18759    18760 1
   19541    18760    18761 1
   19542    18761    18767 1
   19543    18762    18763 1
   19544    18762    18766 1
   19545    18763    18764 1
   19546    18764    18765 1
   19547    18764    18768 1
   19548    18765    18766 1
   19549    18765    18771 1
   19550    18769    18770 1
   19551    18769    18777 1
   19552    18770    18771 1
   19553    18770    18778 1
   19554    18771    18772 1
   19555    18772    18773 1
   19556    18772    18776 1
   19557    18773    18774 1
   19558    18774    18775 1
   19559    18775    18776 1
   19560    18776    18777 1
   19561    18777    18881 1
   19562    18779    18780 1
   19563    18779    18795 1
   19564    18779    18796 1
   19565    18780    18781 1
   19566    18780    18787 1
   19567    18780    18797 1
   19568    18781    18782 1
   19569    18781    18798 1
   19570    18781    18799 1
   19571    18782    18783 1
   19572    18782    18800 1
   19573    18782    18801 1
   19574    18783    18784 1
   19575    18783    18802 1
   19576    18783    18803 1
   19577    18784    18785 1
   19578    18784    18804 1
   19579    18784    18805 1
   19580    18785    18786 1
   19581    18785    18806 1
   19582    18785    18807 1
   19583    18786    18808 1
   19584    18786    18809 1
   19585    18786    18810 1
   19586    18787    18788 1
   19587    18787    18811 1
   19588    18787    18812 1
   19589    18788    18789 1
   19590    18788    18813 1
   19591    18788    18814 1
   19592    18789    18790 1
   19593    18789    18815 1
   19594    18789    18816 1
   19595    18790    18791 1
   19596    18790    18817 1
   19597    18790    18818 1
   19598    18791    18792 1
   19599    18791    18819 1
   19600    18791    18820 1
   19601    18792    18793 1
   19602    18792    18821 1
   19603    18792    18822 1
   19604    18793    18794 1
   19605    18793    18823 1
   19606    18793    18824 1
   19607    18794    18825 1
   19608    18794    18826 1
   19609    18794    18827 1
   19610    18828    18829 1
   19611    18828    18844 1
   19612    18828    18845 1
   19613    18829    18830 1
   19614    18829    18836 1
   19615    18829    18846 1
   19616    18830    18831 1
   19617    18830    18847 1
   19618    18830    18848 1
   19619    18831    18832 1
   19620    18831    18849 1
   19621    18831    18850 1
   19622    18832    18833 1
   19623    18832    18851 1
   19624    18832    18852 1
   19625    18833    18834 1
   19626    18833    18853 1
   19627    18833    18854 1
   19628    18834    18835 1
   19629    18834    18855 1
   19630    18834    18856 1
   19631    18835    18857 1
   19632    18835    18858 1
   19633    18835    18859 1
   19634    18836    18837 1
   19635    18836    18860 1
   19636    18836    18861 1
   19637    18837    18838 1
   19638    18837    18862 1
   19639    18837    18863 1
   19640    18838    18839 1
   19641    18838    18864 1
   19642    18838    18865 1
   19643    18839    18840 1
   19644    18839    18866 1
   19645    18839    18867 1
   19646    18840    18841 1
   19647    18840    18868 1
   19648    18840    18869 1
   19649    18841    18842 1
   19650    18841    18870 1
   19651    18841    18871 1
   19652    18842    18843 1
   19653    18842    18872 1
   19654    18842    18873 1
   19655    18843    18874 1
   19656    18843    18875 1
   19657    18843    18876 1
   19658    18877    18878 1
   19659    18877    18884 1
   19660    18877    18900 1
   19661    18877    18949 1
   19662    18878    18879 1
   19663    18878    18882 1
   19664    18879    18880 1
   19665    18879    18883 1
   19666    18880    18881 1
   19667    18881    18882 1
   19668    18882    18888 1
   19669    18883    18884 1
   19670    18883    18887 1
   19671    18884    18885 1
   19672    18885    18886 1
   19673    18885    18889 1
   19674    18886    18887 1
   19675    18886    18892 1
   19676    18890    18891 1
   19677    18890    18898 1
   19678    18891    18892 1
   19679    18891    18899 1
   19680    18892    18893 1
   19681    18893    18894 1
   19682    18893    18897 1
   19683    18894    18895 1
   19684    18895    18896 1
   19685    18896    18897 1
   19686    18897    18898 1
   19687    18898    19002 1
   19688    18900    18901 1
   19689    18900    18916 1
   19690    18900    18917 1
   19691    18901    18902 1
   19692    18901    18908 1
   19693    18901    18918 1
   19694    18902    18903 1
   19695    18902    18919 1
   19696    18902    18920 1
   19697    18903    18904 1
   19698    18903    18921 1
   19699    18903    18922 1
   19700    18904    18905 1
   19701    18904    18923 1
   19702    18904    18924 1
   19703    18905    18906 1
   19704    18905    18925 1
   19705    18905    18926 1
   19706    18906    18907 1
   19707    18906    18927 1
   19708    18906    18928 1
   19709    18907    18929 1
   19710    18907    18930 1
   19711    18907    18931 1
   19712    18908    18909 1
   19713    18908    18932 1
   19714    18908    18933 1
   19715    18909    18910 1
   19716    18909    18934 1
   19717    18909    18935 1
   19718    18910    18911 1
   19719    18910    18936 1
   19720    18910    18937 1
   19721    18911    18912 1
   19722    18911    18938 1
   19723    18911    18939 1
   19724    18912    18913 1
   19725    18912    18940 1
   19726    18912    18941 1
   19727    18913    18914 1
   19728    18913    18942 1
   19729    18913    18943 1
   19730    18914    18915 1
   19731    18914    18944 1
   19732    18914    18945 1
   19733    18915    18946 1
   19734    18915    18947 1
   19735    18915    18948 1
   19736    18949    18950 1
   19737    18949    18965 1
   19738    18949    18966 1
   19739    18950    18951 1
   19740    18950    18957 1
   19741    18950    18967 1
   19742    18951    18952 1
   19743    18951    18968 1
   19744    18951    18969 1
   19745    18952    18953 1
   19746    18952    18970 1
   19747    18952    18971 1
   19748    18953    18954 1
   19749    18953    18972 1
   19750    18953    18973 1
   19751    18954    18955 1
   19752    18954    18974 1
   19753    18954    18975 1
   19754    18955    18956 1
   19755    18955    18976 1
   19756    18955    18977 1
   19757    18956    18978 1
   19758    18956    18979 1
   19759    18956    18980 1
   19760    18957    18958 1
   19761    18957    18981 1
   19762    18957    18982 1
   19763    18958    18959 1
   19764    18958    18983 1
   19765    18958    18984 1
   19766    18959    18960 1
   19767    18959    18985 1
   19768    18959    18986 1
   19769    18960    18961 1
   19770    18960    18987 1
   19771    18960    18988 1
   19772    18961    18962 1
   19773    18961    18989 1
   19774    18961    18990 1
   19775    18962    18963 1
   19776    18962    18991 1
   19777    18962    18992 1
   19778    18963    18964 1
   19779    18963    18993 1
   19780    18963    18994 1
   19781    18964    18995 1
   19782    18964    18996 1
   19783    18964    18997 1
   19784    18998    18999 1
   19785    18998    19005 1
   19786    18998    19021 1
   19787    18998    19070 1
   19788    18999    19000 1
   19789    18999    19003 1
   19790    19000    19001 1
   19791    19000    19004 1
   19792    19001    19002 1
   19793    19002    19003 1
   19794    19003    19009 1
   19795    19004    19005 1
   19796    19004    19008 1
   19797    19005    19006 1
   19798    19006    19007 1
   19799    19006    19010 1
   19800    19007    19008 1
   19801    19007    19013 1
   19802    19011    19012 1
   19803    19011    19019 1
   19804    19012    19013 1
   19805    19012    19020 1
   19806    19013    19014 1
   19807    19014    19015 1
   19808    19014    19018 1
   19809    19015    19016 1
   19810    19016    19017 1
   19811    19017    19018 1
   19812    19018    19019 1
   19813    19019    19123 1
   19814    19021    19022 1
   19815    19021    19037 1
   19816    19021    19038 1
   19817    19022    19023 1
   19818    19022    19029 1
   19819    19022    19039 1
   19820    19023    19024 1
   19821    19023    19040 1
   19822    19023    19041 1
   19823    19024    19025 1
   19824    19024    19042 1
   19825    19024    19043 1
   19826    19025    19026 1
   19827    19025    19044 1
   19828    19025    19045 1
   19829    19026    19027 1
   19830    19026    19046 1
   19831    19026    19047 1
   19832    19027    19028 1
   19833    19027    19048 1
   19834    19027    19049 1
   19835    19028    19050 1
   19836    19028    19051 1
   19837    19028    19052 1
   19838    19029    19030 1
   19839    19029    19053 1
   19840    19029    19054 1
   19841    19030    19031 1
   19842    19030    19055 1
   19843    19030    19056 1
   19844    19031    19032 1
   19845    19031    19057 1
   19846    19031    19058 1
   19847    19032    19033 1
   19848    19032    19059 1
   19849    19032    19060 1
   19850    19033    19034 1
   19851    19033    19061 1
   19852    19033    19062 1
   19853    19034    19035 1
   19854    19034    19063 1
   19855    19034    19064 1
   19856    19035    19036 1
   19857    19035    19065 1
   19858    19035    19066 1
   19859    19036    19067 1
   19860    19036    19068 1
   19861    19036    19069 1
   19862    19070    19071 1
   19863    19070    19086 1
   19864    19070    19087 1
   19865    19071    19072 1
   19866    19071    19078 1
   19867    19071    19088 1
   19868    19072    19073 1
   19869    19072    19089 1
   19870    19072    19090 1
   19871    19073    19074 1
   19872    19073    19091 1
   19873    19073    19092 1
   19874    19074    19075 1
   19875    19074    19093 1
   19876    19074    19094 1
   19877    19075    19076 1
   19878    19075    19095 1
   19879    19075    19096 1
   19880    19076    19077 1
   19881    19076    19097 1
   19882    19076    19098 1
   19883    19077    19099 1
   19884    19077    19100 1
   19885    19077    19101 1
   19886    19078    19079 1
   19887    19078    19102 1
   19888    19078    19103 1
   19889    19079    19080 1
   19890    19079    19104 1
   19891    19079    19105 1
   19892    19080    19081 1
   19893    19080    19106 1
   19894    19080    19107 1
   19895    19081    19082 1
   19896    19081    19108 1
   19897    19081    19109 1
   19898    19082    19083 1
   19899    19082    19110 1
   19900    19082    19111 1
   19901    19083    19084 1
   19902    19083    19112 1
   19903    19083    19113 1
   19904    19084    19085 1
   19905    19084    19114 1
   19906    19084    19115 1
   19907    19085    19116 1
   19908    19085    19117 1
   19909    19085    19118 1
   19910    19119    19120 1
   19911    19119    19126 1
   19912    19119    19142 1
   19913    19119    19191 1
   19914    19120    19121 1
   19915    19120    19124 1
   19916    19121    19122 1
   19917    19121    19125 1
   19918    19122    19123 1
   19919    19123    19124 1
   19920    19124    19130 1
   19921    19125    19126 1
   19922    19125    19129 1
   19923    19126    19127 1
   19924    19127    19128 1
   19925    19127    19131 1
   19926    19128    19129 1
   19927    19128    19134 1
   19928    19132    19133 1
   19929    19132    19140 1
   19930    19133    19134 1
   19931    19133    19141 1
   19932    19134    19135 1
   19933    19135    19136 1
   19934    19135    19139 1
   19935    19136    19137 1
   19936    19137    19138 1
   19937    19138    19139 1
   19938    19139    19140 1
   19939    19140    19244 1
   19940    19142    19143 1
   19941    19142    19158 1
   19942    19142    19159 1
   19943    19143    19144 1
   19944    19143    19150 1
   19945    19143    19160 1
   19946    19144    19145 1
   19947    19144    19161 1
   19948    19144    19162 1
   19949    19145    19146 1
   19950    19145    19163 1
   19951    19145    19164 1
   19952    19146    19147 1
   19953    19146    19165 1
   19954    19146    19166 1
   19955    19147    19148 1
   19956    19147    19167 1
   19957    19147    19168 1
   19958    19148    19149 1
   19959    19148    19169 1
   19960    19148    19170 1
   19961    19149    19171 1
   19962    19149    19172 1
   19963    19149    19173 1
   19964    19150    19151 1
   19965    19150    19174 1
   19966    19150    19175 1
   19967    19151    19152 1
   19968    19151    19176 1
   19969    19151    19177 1
   19970    19152    19153 1
   19971    19152    19178 1
   19972    19152    19179 1
   19973    19153    19154 1
   19974    19153    19180 1
   19975    19153    19181 1
   19976    19154    19155 1
   19977    19154    19182 1
   19978    19154    19183 1
   19979    19155    19156 1
   19980    19155    19184 1
   19981    19155    19185 1
   19982    19156    19157 1
   19983    19156    19186 1
   19984    19156    19187 1
   19985    19157    19188 1
   19986    19157    19189 1
   19987    19157    19190 1
   19988    19191    19192 1
   19989    19191    19207 1
   19990    19191    19208 1
   19991    19192    19193 1
   19992    19192    19199 1
   19993    19192    19209 1
   19994    19193    19194 1
   19995    19193    19210 1
   19996    19193    19211 1
   19997    19194    19195 1
   19998    19194    19212 1
   19999    19194    19213 1
   20000    19195    19196 1
   20001    19195    19214 1
   20002    19195    19215 1
   20003    19196    19197 1
   20004    19196    19216 1
   20005    19196    19217 1
   20006    19197    19198 1
   20007    19197    19218 1
   20008    19197    19219 1
   20009    19198    19220 1
   20010    19198    19221 1
   20011    19198    19222 1
   20012    19199    19200 1
   20013    19199    19223 1
   20014    19199    19224 1
   20015    19200    19201 1
   20016    19200    19225 1
   20017    19200    19226 1
   20018    19201    19202 1
   20019    19201    19227 1
   20020    19201    19228 1
   20021    19202    19203 1
   20022    19202    19229 1
   20023    19202    19230 1
   20024    19203    19204 1
   20025    19203    19231 1
   20026    19203    19232 1
   20027    19204    19205 1
   20028    19204    19233 1
   20029    19204    19234 1
   20030    19205    19206 1
   20031    19205    19235 1
   20032    19205    19236 1
   20033    19206    19237 1
   20034    19206    19238 1
   20035    19206    19239 1
   20036    19240    19241 1
   20037    19240    19247 1
   20038    19240    19263 1
   20039    19240    19312 1
   20040    19241    19242 1
   20041    19241    19245 1
   20042    19242    19243 1
   20043    19242    19246 1
   20044    19243    19244 1
   20045    19244    19245 1
   20046    19245    19251 1
   20047    19246    19247 1
   20048    19246    19250 1
   20049    19247    19248 1
   20050    19248    19249 1
   20051    19248    19252 1
   20052    19249    19250 1
   20053    19249    19255 1
   20054    19253    19254 1
   20055    19253    19261 1
   20056    19254    19255 1
   20057    19254    19262 1
   20058    19255    19256 1
   20059    19256    19257 1
   20060    19256    19260 1
   20061    19257    19258 1
   20062    19258    19259 1
   20063    19259    19260 1
   20064    19260    19261 1
   20065    19261    19365 1
   20066    19263    19264 1
   20067    19263    19279 1
   20068    19263    19280 1
   20069    19264    19265 1
   20070    19264    19271 1
   20071    19264    19281 1
   20072    19265    19266 1
   20073    19265    19282 1
   20074    19265    19283 1
   20075    19266    19267 1
   20076    19266    19284 1
   20077    19266    19285 1
   20078    19267    19268 1
   20079    19267    19286 1
   20080    19267    19287 1
   20081    19268    19269 1
   20082    19268    19288 1
   20083    19268    19289 1
   20084    19269    19270 1
   20085    19269    19290 1
   20086    19269    19291 1
   20087    19270    19292 1
   20088    19270    19293 1
   20089    19270    19294 1
   20090    19271    19272 1
   20091    19271    19295 1
   20092    19271    19296 1
   20093    19272    19273 1
   20094    19272    19297 1
   20095    19272    19298 1
   20096    19273    19274 1
   20097    19273    19299 1
   20098    19273    19300 1
   20099    19274    19275 1
   20100    19274    19301 1
   20101    19274    19302 1
   20102    19275    19276 1
   20103    19275    19303 1
   20104    19275    19304 1
   20105    19276    19277 1
   20106    19276    19305 1
   20107    19276    19306 1
   20108    19277    19278 1
   20109    19277    19307 1
   20110    19277    19308 1
   20111    19278    19309 1
   20112    19278    19310 1
   20113    19278    19311 1
   20114    19312    19313 1
   20115    19312    19328 1
   20116    19312    19329 1
   20117    19313    19314 1
   20118    19313    19320 1
   20119    19313    19330 1
   20120    19314    19315 1
   20121    19314    19331 1
   20122    19314    19332 1
   20123    19315    19316 1
   20124    19315    19333 1
   20125    19315    19334 1
   20126    19316    19317 1
   20127    19316    19335 1
   20128    19316    19336 1
   20129    19317    19318 1
   20130    19317    19337 1
   20131    19317    19338 1
   20132    19318    19319 1
   20133    19318    19339 1
   20134    19318    19340 1
   20135    19319    19341 1
   20136    19319    19342 1
   20137    19319    19343 1
   20138    19320    19321 1
   20139    19320    19344 1
   20140    19320    19345 1
   20141    19321    19322 1
   20142    19321    19346 1
   20143    19321    19347 1
   20144    19322    19323 1
   20145    19322    19348 1
   20146    19322    19349 1
   20147    19323    19324 1
   20148    19323    19350 1
   20149    19323    19351 1
   20150    19324    19325 1
   20151    19324    19352 1
   20152    19324    19353 1
   20153    19325    19326 1
   20154    19325    19354 1
   20155    19325    19355 1
   20156    19326    19327 1
   20157    19326    19356 1
   20158    19326    19357 1
   20159    19327    19358 1
   20160    19327    19359 1
   20161    19327    19360 1
   20162    19361    19362 1
   20163    19361    19368 1
   20164    19361    19384 1
   20165    19361    19433 1
   20166    19362    19363 1
   20167    19362    19366 1
   20168    19363    19364 1
   20169    19363    19367 1
   20170    19364    19365 1
   20171    19365    19366 1
   20172    19366    19372 1
   20173    19367    19368 1
   20174    19367    19371 1
   20175    19368    19369 1
   20176    19369    19370 1
   20177    19369    19373 1
   20178    19370    19371 1
   20179    19370    19376 1
   20180    19374    19375 1
   20181    19374    19382 1
   20182    19375    19376 1
   20183    19375    19383 1
   20184    19376    19377 1
   20185    19377    19378 1
   20186    19377    19381 1
   20187    19378    19379 1
   20188    19379    19380 1
   20189    19380    19381 1
   20190    19381    19382 1
   20191    19382    19486 1
   20192    19384    19385 1
   20193    19384    19400 1
   20194    19384    19401 1
   20195    19385    19386 1
   20196    19385    19392 1
   20197    19385    19402 1
   20198    19386    19387 1
   20199    19386    19403 1
   20200    19386    19404 1
   20201    19387    19388 1
   20202    19387    19405 1
   20203    19387    19406 1
   20204    19388    19389 1
   20205    19388    19407 1
   20206    19388    19408 1
   20207    19389    19390 1
   20208    19389    19409 1
   20209    19389    19410 1
   20210    19390    19391 1
   20211    19390    19411 1
   20212    19390    19412 1
   20213    19391    19413 1
   20214    19391    19414 1
   20215    19391    19415 1
   20216    19392    19393 1
   20217    19392    19416 1
   20218    19392    19417 1
   20219    19393    19394 1
   20220    19393    19418 1
   20221    19393    19419 1
   20222    19394    19395 1
   20223    19394    19420 1
   20224    19394    19421 1
   20225    19395    19396 1
   20226    19395    19422 1
   20227    19395    19423 1
   20228    19396    19397 1
   20229    19396    19424 1
   20230    19396    19425 1
   20231    19397    19398 1
   20232    19397    19426 1
   20233    19397    19427 1
   20234    19398    19399 1
   20235    19398    19428 1
   20236    19398    19429 1
   20237    19399    19430 1
   20238    19399    19431 1
   20239    19399    19432 1
   20240    19433    19434 1
   20241    19433    19449 1
   20242    19433    19450 1
   20243    19434    19435 1
   20244    19434    19441 1
   20245    19434    19451 1
   20246    19435    19436 1
   20247    19435    19452 1
   20248    19435    19453 1
   20249    19436    19437 1
   20250    19436    19454 1
   20251    19436    19455 1
   20252    19437    19438 1
   20253    19437    19456 1
   20254    19437    19457 1
   20255    19438    19439 1
   20256    19438    19458 1
   20257    19438    19459 1
   20258    19439    19440 1
   20259    19439    19460 1
   20260    19439    19461 1
   20261    19440    19462 1
   20262    19440    19463 1
   20263    19440    19464 1
   20264    19441    19442 1
   20265    19441    19465 1
   20266    19441    19466 1
   20267    19442    19443 1
   20268    19442    19467 1
   20269    19442    19468 1
   20270    19443    19444 1
   20271    19443    19469 1
   20272    19443    19470 1
   20273    19444    19445 1
   20274    19444    19471 1
   20275    19444    19472 1
   20276    19445    19446 1
   20277    19445    19473 1
   20278    19445    19474 1
   20279    19446    19447 1
   20280    19446    19475 1
   20281    19446    19476 1
   20282    19447    19448 1
   20283    19447    19477 1
   20284    19447    19478 1
   20285    19448    19479 1
   20286    19448    19480 1
   20287    19448    19481 1
   20288    19482    19483 1
   20289    19482    19489 1
   20290    19482    19505 1
   20291    19482    19554 1
   20292    19483    19484 1
   20293    19483    19487 1
   20294    19484    19485 1
   20295    19484    19488 1
   20296    19485    19486 1
   20297    19486    19487 1
   20298    19487    19493 1
   20299    19488    19489 1
   20300    19488    19492 1
   20301    19489    19490 1
   20302    19490    19491 1
   20303    19490    19494 1
   20304    19491    19492 1
   20305    19491    19497 1
   20306    19495    19496 1
   20307    19495    19503 1
   20308    19496    19497 1
   20309    19496    19504 1
   20310    19497    19498 1
   20311    19498    19499 1
   20312    19498    19502 1
   20313    19499    19500 1
   20314    19500    19501 1
   20315    19501    19502 1
   20316    19502    19503 1
   20317    19503    19607 1
   20318    19505    19506 1
   20319    19505    19521 1
   20320    19505    19522 1
   20321    19506    19507 1
   20322    19506    19513 1
   20323    19506    19523 1
   20324    19507    19508 1
   20325    19507    19524 1
   20326    19507    19525 1
   20327    19508    19509 1
   20328    19508    19526 1
   20329    19508    19527 1
   20330    19509    19510 1
   20331    19509    19528 1
   20332    19509    19529 1
   20333    19510    19511 1
   20334    19510    19530 1
   20335    19510    19531 1
   20336    19511    19512 1
   20337    19511    19532 1
   20338    19511    19533 1
   20339    19512    19534 1
   20340    19512    19535 1
   20341    19512    19536 1
   20342    19513    19514 1
   20343    19513    19537 1
   20344    19513    19538 1
   20345    19514    19515 1
   20346    19514    19539 1
   20347    19514    19540 1
   20348    19515    19516 1
   20349    19515    19541 1
   20350    19515    19542 1
   20351    19516    19517 1
   20352    19516    19543 1
   20353    19516    19544 1
   20354    19517    19518 1
   20355    19517    19545 1
   20356    19517    19546 1
   20357    19518    19519 1
   20358    19518    19547 1
   20359    19518    19548 1
   20360    19519    19520 1
   20361    19519    19549 1
   20362    19519    19550 1
   20363    19520    19551 1
   20364    19520    19552 1
   20365    19520    19553 1
   20366    19554    19555 1
   20367    19554    19570 1
   20368    19554    19571 1
   20369    19555    19556 1
   20370    19555    19562 1
   20371    19555    19572 1
   20372    19556    19557 1
   20373    19556    19573 1
   20374    19556    19574 1
   20375    19557    19558 1
   20376    19557    19575 1
   20377    19557    19576 1
   20378    19558    19559 1
   20379    19558    19577 1
   20380    19558    19578 1
   20381    19559    19560 1
   20382    19559    19579 1
   20383    19559    19580 1
   20384    19560    19561 1
   20385    19560    19581 1
   20386    19560    19582 1
   20387    19561    19583 1
   20388    19561    19584 1
   20389    19561    19585 1
   20390    19562    19563 1
   20391    19562    19586 1
   20392    19562    19587 1
   20393    19563    19564 1
   20394    19563    19588 1
   20395    19563    19589 1
   20396    19564    19565 1
   20397    19564    19590 1
   20398    19564    19591 1
   20399    19565    19566 1
   20400    19565    19592 1
   20401    19565    19593 1
   20402    19566    19567 1
   20403    19566    19594 1
   20404    19566    19595 1
   20405    19567    19568 1
   20406    19567    19596 1
   20407    19567    19597 1
   20408    19568    19569 1
   20409    19568    19598 1
   20410    19568    19599 1
   20411    19569    19600 1
   20412    19569    19601 1
   20413    19569    19602 1
   20414    19603    19604 1
   20415    19603    19610 1
   20416    19603    19626 1
   20417    19603    19675 1
   20418    19604    19605 1
   20419    19604    19608 1
   20420    19605    19606 1
   20421    19605    19609 1
   20422    19606    19607 1
   20423    19607    19608 1
   20424    19608    19614 1
   20425    19609    19610 1
   20426    19609    19613 1
   20427    19610    19611 1
   20428    19611    19612 1
   20429    19611    19615 1
   20430    19612    19613 1
   20431    19612    19618 1
   20432    19616    19617 1
   20433    19616    19624 1
   20434    19617    19618 1
   20435    19617    19625 1
   20436    19618    19619 1
   20437    19619    19620 1
   20438    19619    19623 1
   20439    19620    19621 1
   20440    19621    19622 1
   20441    19622    19623 1
   20442    19623    19624 1
   20443    19624    19728 1
   20444    19626    19627 1
   20445    19626    19642 1
   20446    19626    19643 1
   20447    19627    19628 1
   20448    19627    19634 1
   20449    19627    19644 1
   20450    19628    19629 1
   20451    19628    19645 1
   20452    19628    19646 1
   20453    19629    19630 1
   20454    19629    19647 1
   20455    19629    19648 1
   20456    19630    19631 1
   20457    19630    19649 1
   20458    19630    19650 1
   20459    19631    19632 1
   20460    19631    19651 1
   20461    19631    19652 1
   20462    19632    19633 1
   20463    19632    19653 1
   20464    19632    19654 1
   20465    19633    19655 1
   20466    19633    19656 1
   20467    19633    19657 1
   20468    19634    19635 1
   20469    19634    19658 1
   20470    19634    19659 1
   20471    19635    19636 1
   20472    19635    19660 1
   20473    19635    19661 1
   20474    19636    19637 1
   20475    19636    19662 1
   20476    19636    19663 1
   20477    19637    19638 1
   20478    19637    19664 1
   20479    19637    19665 1
   20480    19638    19639 1
   20481    19638    19666 1
   20482    19638    19667 1
   20483    19639    19640 1
   20484    19639    19668 1
   20485    19639    19669 1
   20486    19640    19641 1
   20487    19640    19670 1
   20488    19640    19671 1
   20489    19641    19672 1
   20490    19641    19673 1
   20491    19641    19674 1
   20492    19675    19676 1
   20493    19675    19691 1
   20494    19675    19692 1
   20495    19676    19677 1
   20496    19676    19683 1
   20497    19676    19693 1
   20498    19677    19678 1
   20499    19677    19694 1
   20500    19677    19695 1
   20501    19678    19679 1
   20502    19678    19696 1
   20503    19678    19697 1
   20504    19679    19680 1
   20505    19679    19698 1
   20506    19679    19699 1
   20507    19680    19681 1
   20508    19680    19700 1
   20509    19680    19701 1
   20510    19681    19682 1
   20511    19681    19702 1
   20512    19681    19703 1
   20513    19682    19704 1
   20514    19682    19705 1
   20515    19682    19706 1
   20516    19683    19684 1
   20517    19683    19707 1
   20518    19683    19708 1
   20519    19684    19685 1
   20520    19684    19709 1
   20521    19684    19710 1
   20522    19685    19686 1
   20523    19685    19711 1
   20524    19685    19712 1
   20525    19686    19687 1
   20526    19686    19713 1
   20527    19686    19714 1
   20528    19687    19688 1
   20529    19687    19715 1
   20530    19687    19716 1
   20531    19688    19689 1
   20532    19688    19717 1
   20533    19688    19718 1
   20534    19689    19690 1
   20535    19689    19719 1
   20536    19689    19720 1
   20537    19690    19721 1
   20538    19690    19722 1
   20539    19690    19723 1
   20540    19724    19725 1
   20541    19724    19731 1
   20542    19724    19747 1
   20543    19724    19796 1
   20544    19725    19726 1
   20545    19725    19729 1
   20546    19726    19727 1
   20547    19726    19730 1
   20548    19727    19728 1
   20549    19728    19729 1
   20550    19729    19735 1
   20551    19730    19731 1
   20552    19730    19734 1
   20553    19731    19732 1
   20554    19732    19733 1
   20555    19732    19736 1
   20556    19733    19734 1
   20557    19733    19739 1
   20558    19737    19738 1
   20559    19737    19745 1
   20560    19738    19739 1
   20561    19738    19746 1
   20562    19739    19740 1
   20563    19740    19741 1
   20564    19740    19744 1
   20565    19741    19742 1
   20566    19742    19743 1
   20567    19743    19744 1
   20568    19744    19745 1
   20569    19745    19849 1
   20570    19747    19748 1
   20571    19747    19763 1
   20572    19747    19764 1
   20573    19748    19749 1
   20574    19748    19755 1
   20575    19748    19765 1
   20576    19749    19750 1
   20577    19749    19766 1
   20578    19749    19767 1
   20579    19750    19751 1
   20580    19750    19768 1
   20581    19750    19769 1
   20582    19751    19752 1
   20583    19751    19770 1
   20584    19751    19771 1
   20585    19752    19753 1
   20586    19752    19772 1
   20587    19752    19773 1
   20588    19753    19754 1
   20589    19753    19774 1
   20590    19753    19775 1
   20591    19754    19776 1
   20592    19754    19777 1
   20593    19754    19778 1
   20594    19755    19756 1
   20595    19755    19779 1
   20596    19755    19780 1
   20597    19756    19757 1
   20598    19756    19781 1
   20599    19756    19782 1
   20600    19757    19758 1
   20601    19757    19783 1
   20602    19757    19784 1
   20603    19758    19759 1
   20604    19758    19785 1
   20605    19758    19786 1
   20606    19759    19760 1
   20607    19759    19787 1
   20608    19759    19788 1
   20609    19760    19761 1
   20610    19760    19789 1
   20611    19760    19790 1
   20612    19761    19762 1
   20613    19761    19791 1
   20614    19761    19792 1
   20615    19762    19793 1
   20616    19762    19794 1
   20617    19762    19795 1
   20618    19796    19797 1
   20619    19796    19812 1
   20620    19796    19813 1
   20621    19797    19798 1
   20622    19797    19804 1
   20623    19797    19814 1
   20624    19798    19799 1
   20625    19798    19815 1
   20626    19798    19816 1
   20627    19799    19800 1
   20628    19799    19817 1
   20629    19799    19818 1
   20630    19800    19801 1
   20631    19800    19819 1
   20632    19800    19820 1
   20633    19801    19802 1
   20634    19801    19821 1
   20635    19801    19822 1
   20636    19802    19803 1
   20637    19802    19823 1
   20638    19802    19824 1
   20639    19803    19825 1
   20640    19803    19826 1
   20641    19803    19827 1
   20642    19804    19805 1
   20643    19804    19828 1
   20644    19804    19829 1
   20645    19805    19806 1
   20646    19805    19830 1
   20647    19805    19831 1
   20648    19806    19807 1
   20649    19806    19832 1
   20650    19806    19833 1
   20651    19807    19808 1
   20652    19807    19834 1
   20653    19807    19835 1
   20654    19808    19809 1
   20655    19808    19836 1
   20656    19808    19837 1
   20657    19809    19810 1
   20658    19809    19838 1
   20659    19809    19839 1
   20660    19810    19811 1
   20661    19810    19840 1
   20662    19810    19841 1
   20663    19811    19842 1
   20664    19811    19843 1
   20665    19811    19844 1
   20666    19845    19846 1
   20667    19845    19852 1
   20668    19845    19868 1
   20669    19845    19917 1
   20670    19846    19847 1
   20671    19846    19850 1
   20672    19847    19848 1
   20673    19847    19851 1
   20674    19848    19849 1
   20675    19849    19850 1
   20676    19850    19856 1
   20677    19851    19852 1
   20678    19851    19855 1
   20679    19852    19853 1
   20680    19853    19854 1
   20681    19853    19857 1
   20682    19854    19855 1
   20683    19854    19860 1
   20684    19858    19859 1
   20685    19858    19866 1
   20686    19859    19860 1
   20687    19859    19867 1
   20688    19860    19861 1
   20689    19861    19862 1
   20690    19861    19865 1
   20691    19862    19863 1
   20692    19863    19864 1
   20693    19864    19865 1
   20694    19865    19866 1
   20695    19866    19970 1
   20696    19868    19869 1
   20697    19868    19884 1
   20698    19868    19885 1
   20699    19869    19870 1
   20700    19869    19876 1
   20701    19869    19886 1
   20702    19870    19871 1
   20703    19870    19887 1
   20704    19870    19888 1
   20705    19871    19872 1
   20706    19871    19889 1
   20707    19871    19890 1
   20708    19872    19873 1
   20709    19872    19891 1
   20710    19872    19892 1
   20711    19873    19874 1
   20712    19873    19893 1
   20713    19873    19894 1
   20714    19874    19875 1
   20715    19874    19895 1
   20716    19874    19896 1
   20717    19875    19897 1
   20718    19875    19898 1
   20719    19875    19899 1
   20720    19876    19877 1
   20721    19876    19900 1
   20722    19876    19901 1
   20723    19877    19878 1
   20724    19877    19902 1
   20725    19877    19903 1
   20726    19878    19879 1
   20727    19878    19904 1
   20728    19878    19905 1
   20729    19879    19880 1
   20730    19879    19906 1
   20731    19879    19907 1
   20732    19880    19881 1
   20733    19880    19908 1
   20734    19880    19909 1
   20735    19881    19882 1
   20736    19881    19910 1
   20737    19881    19911 1
   20738    19882    19883 1
   20739    19882    19912 1
   20740    19882    19913 1
   20741    19883    19914 1
   20742    19883    19915 1
   20743    19883    19916 1
   20744    19917    19918 1
   20745    19917    19933 1
   20746    19917    19934 1
   20747    19918    19919 1
   20748    19918    19925 1
   20749    19918    19935 1
   20750    19919    19920 1
   20751    19919    19936 1
   20752    19919    19937 1
   20753    19920    19921 1
   20754    19920    19938 1
   20755    19920    19939 1
   20756    19921    19922 1
   20757    19921    19940 1
   20758    19921    19941 1
   20759    19922    19923 1
   20760    19922    19942 1
   20761    19922    19943 1
   20762    19923    19924 1
   20763    19923    19944 1
   20764    19923    19945 1
   20765    19924    19946 1
   20766    19924    19947 1
   20767    19924    19948 1
   20768    19925    19926 1
   20769    19925    19949 1
   20770    19925    19950 1
   20771    19926    19927 1
   20772    19926    19951 1
   20773    19926    19952 1
   20774    19927    19928 1
   20775    19927    19953 1
   20776    19927    19954 1
   20777    19928    19929 1
   20778    19928    19955 1
   20779    19928    19956 1
   20780    19929    19930 1
   20781    19929    19957 1
   20782    19929    19958 1
   20783    19930    19931 1
   20784    19930    19959 1
   20785    19930    19960 1
   20786    19931    19932 1
   20787    19931    19961 1
   20788    19931    19962 1
   20789    19932    19963 1
   20790    19932    19964 1
   20791    19932    19965 1
   20792    19966    19967 1
   20793    19966    19973 1
   20794    19966    19989 1
   20795    19966    20038 1
   20796    19967    19968 1
   20797    19967    19971 1
   20798    19968    19969 1
   20799    19968    19972 1
   20800    19969    19970 1
   20801    19970    19971 1
   20802    19971    19977 1
   20803    19972    19973 1
   20804    19972    19976 1
   20805    19973    19974 1
   20806    19974    19975 1
   20807    19974    19978 1
   20808    19975    19976 1
   20809    19975    19981 1
   20810    19979    19980 1
   20811    19979    19987 1
   20812    19980    19981 1
   20813    19980    19988 1
   20814    19981    19982 1
   20815    19982    19983 1
   20816    19982    19986 1
   20817    19983    19984 1
   20818    19984    19985 1
   20819    19985    19986 1
   20820    19986    19987 1
   20821    19987    20091 1
   20822    19989    19990 1
   20823    19989    20005 1
   20824    19989    20006 1
   20825    19990    19991 1
   20826    19990    19997 1
   20827    19990    20007 1
   20828    19991    19992 1
   20829    19991    20008 1
   20830    19991    20009 1
   20831    19992    19993 1
   20832    19992    20010 1
   20833    19992    20011 1
   20834    19993    19994 1
   20835    19993    20012 1
   20836    19993    20013 1
   20837    19994    19995 1
   20838    19994    20014 1
   20839    19994    20015 1
   20840    19995    19996 1
   20841    19995    20016 1
   20842    19995    20017 1
   20843    19996    20018 1
   20844    19996    20019 1
   20845    19996    20020 1
   20846    19997    19998 1
   20847    19997    20021 1
   20848    19997    20022 1
   20849    19998    19999 1
   20850    19998    20023 1
   20851    19998    20024 1
   20852    19999    20000 1
   20853    19999    20025 1
   20854    19999    20026 1
   20855    20000    20001 1
   20856    20000    20027 1
   20857    20000    20028 1
   20858    20001    20002 1
   20859    20001    20029 1
   20860    20001    20030 1
   20861    20002    20003 1
   20862    20002    20031 1
   20863    20002    20032 1
   20864    20003    20004 1
   20865    20003    20033 1
   20866    20003    20034 1
   20867    20004    20035 1
   20868    20004    20036 1
   20869    20004    20037 1
   20870    20038    20039 1
   20871    20038    20054 1
   20872    20038    20055 1
   20873    20039    20040 1
   20874    20039    20046 1
   20875    20039    20056 1
   20876    20040    20041 1
   20877    20040    20057 1
   20878    20040    20058 1
   20879    20041    20042 1
   20880    20041    20059 1
   20881    20041    20060 1
   20882    20042    20043 1
   20883    20042    20061 1
   20884    20042    20062 1
   20885    20043    20044 1
   20886    20043    20063 1
   20887    20043    20064 1
   20888    20044    20045 1
   20889    20044    20065 1
   20890    20044    20066 1
   20891    20045    20067 1
   20892    20045    20068 1
   20893    20045    20069 1
   20894    20046    20047 1
   20895    20046    20070 1
   20896    20046    20071 1
   20897    20047    20048 1
   20898    20047    20072 1
   20899    20047    20073 1
   20900    20048    20049 1
   20901    20048    20074 1
   20902    20048    20075 1
   20903    20049    20050 1
   20904    20049    20076 1
   20905    20049    20077 1
   20906    20050    20051 1
   20907    20050    20078 1
   20908    20050    20079 1
   20909    20051    20052 1
   20910    20051    20080 1
   20911    20051    20081 1
   20912    20052    20053 1
   20913    20052    20082 1
   20914    20052    20083 1
   20915    20053    20084 1
   20916    20053    20085 1
   20917    20053    20086 1
   20918    20087    20088 1
   20919    20087    20094 1
   20920    20087    20110 1
   20921    20087    20159 1
   20922    20088    20089 1
   20923    20088    20092 1
   20924    20089    20090 1
   20925    20089    20093 1
   20926    20090    20091 1
   20927    20091    20092 1
   20928    20092    20098 1
   20929    20093    20094 1
   20930    20093    20097 1
   20931    20094    20095 1
   20932    20095    20096 1
   20933    20095    20099 1
   20934    20096    20097 1
   20935    20096    20102 1
   20936    20100    20101 1
   20937    20100    20108 1
   20938    20101    20102 1
   20939    20101    20109 1
   20940    20102    20103 1
   20941    20103    20104 1
   20942    20103    20107 1
   20943    20104    20105 1
   20944    20105    20106 1
   20945    20106    20107 1
   20946    20107    20108 1
   20947    20108    20212 1
   20948    20110    20111 1
   20949    20110    20126 1
   20950    20110    20127 1
   20951    20111    20112 1
   20952    20111    20118 1
   20953    20111    20128 1
   20954    20112    20113 1
   20955    20112    20129 1
   20956    20112    20130 1
   20957    20113    20114 1
   20958    20113    20131 1
   20959    20113    20132 1
   20960    20114    20115 1
   20961    20114    20133 1
   20962    20114    20134 1
   20963    20115    20116 1
   20964    20115    20135 1
   20965    20115    20136 1
   20966    20116    20117 1
   20967    20116    20137 1
   20968    20116    20138 1
   20969    20117    20139 1
   20970    20117    20140 1
   20971    20117    20141 1
   20972    20118    20119 1
   20973    20118    20142 1
   20974    20118    20143 1
   20975    20119    20120 1
   20976    20119    20144 1
   20977    20119    20145 1
   20978    20120    20121 1
   20979    20120    20146 1
   20980    20120    20147 1
   20981    20121    20122 1
   20982    20121    20148 1
   20983    20121    20149 1
   20984    20122    20123 1
   20985    20122    20150 1
   20986    20122    20151 1
   20987    20123    20124 1
   20988    20123    20152 1
   20989    20123    20153 1
   20990    20124    20125 1
   20991    20124    20154 1
   20992    20124    20155 1
   20993    20125    20156 1
   20994    20125    20157 1
   20995    20125    20158 1
   20996    20159    20160 1
   20997    20159    20175 1
   20998    20159    20176 1
   20999    20160    20161 1
   21000    20160    20167 1
   21001    20160    20177 1
   21002    20161    20162 1
   21003    20161    20178 1
   21004    20161    20179 1
   21005    20162    20163 1
   21006    20162    20180 1
   21007    20162    20181 1
   21008    20163    20164 1
   21009    20163    20182 1
   21010    20163    20183 1
   21011    20164    20165 1
   21012    20164    20184 1
   21013    20164    20185 1
   21014    20165    20166 1
   21015    20165    20186 1
   21016    20165    20187 1
   21017    20166    20188 1
   21018    20166    20189 1
   21019    20166    20190 1
   21020    20167    20168 1
   21021    20167    20191 1
   21022    20167    20192 1
   21023    20168    20169 1
   21024    20168    20193 1
   21025    20168    20194 1
   21026    20169    20170 1
   21027    20169    20195 1
   21028    20169    20196 1
   21029    20170    20171 1
   21030    20170    20197 1
   21031    20170    20198 1
   21032    20171    20172 1
   21033    20171    20199 1
   21034    20171    20200 1
   21035    20172    20173 1
   21036    20172    20201 1
   21037    20172    20202 1
   21038    20173    20174 1
   21039    20173    20203 1
   21040    20173    20204 1
   21041    20174    20205 1
   21042    20174    20206 1
   21043    20174    20207 1
   21044    20208    20209 1
   21045    20208    20215 1
   21046    20208    20231 1
   21047    20208    20280 1
   21048    20209    20210 1
   21049    20209    20213 1
   21050    20210    20211 1
   21051    20210    20214 1
   21052    20211    20212 1
   21053    20212    20213 1
   21054    20213    20219 1
   21055    20214    20215 1
   21056    20214    20218 1
   21057    20215    20216 1
   21058    20216    20217 1
   21059    20216    20220 1
   21060    20217    20218 1
   21061    20217    20223 1
   21062    20221    20222 1
   21063    20221    20229 1
   21064    20222    20223 1
   21065    20222    20230 1
   21066    20223    20224 1
   21067    20224    20225 1
   21068    20224    20228 1
   21069    20225    20226 1
   21070    20226    20227 1
   21071    20227    20228 1
   21072    20228    20229 1
   21073    20229    20333 1
   21074    20231    20232 1
   21075    20231    20247 1
   21076    20231    20248 1
   21077    20232    20233 1
   21078    20232    20239 1
   21079    20232    20249 1
   21080    20233    20234 1
   21081    20233    20250 1
   21082    20233    20251 1
   21083    20234    20235 1
   21084    20234    20252 1
   21085    20234    20253 1
   21086    20235    20236 1
   21087    20235    20254 1
   21088    20235    20255 1
   21089    20236    20237 1
   21090    20236    20256 1
   21091    20236    20257 1
   21092    20237    20238 1
   21093    20237    20258 1
   21094    20237    20259 1
   21095    20238    20260 1
   21096    20238    20261 1
   21097    20238    20262 1
   21098    20239    20240 1
   21099    20239    20263 1
   21100    20239    20264 1
   21101    20240    20241 1
   21102    20240    20265 1
   21103    20240    20266 1
   21104    20241    20242 1
   21105    20241    20267 1
   21106    20241    20268 1
   21107    20242    20243 1
   21108    20242    20269 1
   21109    20242    20270 1
   21110    20243    20244 1
   21111    20243    20271 1
   21112    20243    20272 1
   21113    20244    20245 1
   21114    20244    20273 1
   21115    20244    20274 1
   21116    20245    20246 1
   21117    20245    20275 1
   21118    20245    20276 1
   21119    20246    20277 1
   21120    20246    20278 1
   21121    20246    20279 1
   21122    20280    20281 1
   21123    20280    20296 1
   21124    20280    20297 1
   21125    20281    20282 1
   21126    20281    20288 1
   21127    20281    20298 1
   21128    20282    20283 1
   21129    20282    20299 1
   21130    20282    20300 1
   21131    20283    20284 1
   21132    20283    20301 1
   21133    20283    20302 1
   21134    20284    20285 1
   21135    20284    20303 1
   21136    20284    20304 1
   21137    20285    20286 1
   21138    20285    20305 1
   21139    20285    20306 1
   21140    20286    20287 1
   21141    20286    20307 1
   21142    20286    20308 1
   21143    20287    20309 1
   21144    20287    20310 1
   21145    20287    20311 1
   21146    20288    20289 1
   21147    20288    20312 1
   21148    20288    20313 1
   21149    20289    20290 1
   21150    20289    20314 1
   21151    20289    20315 1
   21152    20290    20291 1
   21153    20290    20316 1
   21154    20290    20317 1
   21155    20291    20292 1
   21156    20291    20318 1
   21157    20291    20319 1
   21158    20292    20293 1
   21159    20292    20320 1
   21160    20292    20321 1
   21161    20293    20294 1
   21162    20293    20322 1
   21163    20293    20323 1
   21164    20294    20295 1
   21165    20294    20324 1
   21166    20294    20325 1
   21167    20295    20326 1
   21168    20295    20327 1
   21169    20295    20328 1
   21170    20329    20330 1
   21171    20329    20336 1
   21172    20329    20352 1
   21173    20329    20401 1
   21174    20330    20331 1
   21175    20330    20334 1
   21176    20331    20332 1
   21177    20331    20335 1
   21178    20332    20333 1
   21179    20333    20334 1
   21180    20334    20340 1
   21181    20335    20336 1
   21182    20335    20339 1
   21183    20336    20337 1
   21184    20337    20338 1
   21185    20337    20341 1
   21186    20338    20339 1
   21187    20338    20344 1
   21188    20342    20343 1
   21189    20342    20350 1
   21190    20343    20344 1
   21191    20343    20351 1
   21192    20344    20345 1
   21193    20345    20346 1
   21194    20345    20349 1
   21195    20346    20347 1
   21196    20347    20348 1
   21197    20348    20349 1
   21198    20349    20350 1
   21199    20350    20454 1
   21200    20352    20353 1
   21201    20352    20368 1
   21202    20352    20369 1
   21203    20353    20354 1
   21204    20353    20360 1
   21205    20353    20370 1
   21206    20354    20355 1
   21207    20354    20371 1
   21208    20354    20372 1
   21209    20355    20356 1
   21210    20355    20373 1
   21211    20355    20374 1
   21212    20356    20357 1
   21213    20356    20375 1
   21214    20356    20376 1
   21215    20357    20358 1
   21216    20357    20377 1
   21217    20357    20378 1
   21218    20358    20359 1
   21219    20358    20379 1
   21220    20358    20380 1
   21221    20359    20381 1
   21222    20359    20382 1
   21223    20359    20383 1
   21224    20360    20361 1
   21225    20360    20384 1
   21226    20360    20385 1
   21227    20361    20362 1
   21228    20361    20386 1
   21229    20361    20387 1
   21230    20362    20363 1
   21231    20362    20388 1
   21232    20362    20389 1
   21233    20363    20364 1
   21234    20363    20390 1
   21235    20363    20391 1
   21236    20364    20365 1
   21237    20364    20392 1
   21238    20364    20393 1
   21239    20365    20366 1
   21240    20365    20394 1
   21241    20365    20395 1
   21242    20366    20367 1
   21243    20366    20396 1
   21244    20366    20397 1
   21245    20367    20398 1
   21246    20367    20399 1
   21247    20367    20400 1
   21248    20401    20402 1
   21249    20401    20417 1
   21250    20401    20418 1
   21251    20402    20403 1
   21252    20402    20409 1
   21253    20402    20419 1
   21254    20403    20404 1
   21255    20403    20420 1
   21256    20403    20421 1
   21257    20404    20405 1
   21258    20404    20422 1
   21259    20404    20423 1
   21260    20405    20406 1
   21261    20405    20424 1
   21262    20405    20425 1
   21263    20406    20407 1
   21264    20406    20426 1
   21265    20406    20427 1
   21266    20407    20408 1
   21267    20407    20428 1
   21268    20407    20429 1
   21269    20408    20430 1
   21270    20408    20431 1
   21271    20408    20432 1
   21272    20409    20410 1
   21273    20409    20433 1
   21274    20409    20434 1
   21275    20410    20411 1
   21276    20410    20435 1
   21277    20410    20436 1
   21278    20411    20412 1
   21279    20411    20437 1
   21280    20411    20438 1
   21281    20412    20413 1
   21282    20412    20439 1
   21283    20412    20440 1
   21284    20413    20414 1
   21285    20413    20441 1
   21286    20413    20442 1
   21287    20414    20415 1
   21288    20414    20443 1
   21289    20414    20444 1
   21290    20415    20416 1
   21291    20415    20445 1
   21292    20415    20446 1
   21293    20416    20447 1
   21294    20416    20448 1
   21295    20416    20449 1
   21296    20450    20451 1
   21297    20450    20457 1
   21298    20450    20473 1
   21299    20450    20522 1
   21300    20451    20452 1
   21301    20451    20455 1
   21302    20452    20453 1
   21303    20452    20456 1
   21304    20453    20454 1
   21305    20454    20455 1
   21306    20455    20461 1
   21307    20456    20457 1
   21308    20456    20460 1
   21309    20457    20458 1
   21310    20458    20459 1
   21311    20458    20462 1
   21312    20459    20460 1
   21313    20459    20465 1
   21314    20463    20464 1
   21315    20463    20471 1
   21316    20464    20465 1
   21317    20464    20472 1
   21318    20465    20466 1
   21319    20466    20467 1
   21320    20466    20470 1
   21321    20467    20468 1
   21322    20468    20469 1
   21323    20469    20470 1
   21324    20470    20471 1
   21325    20471    20575 1
   21326    20473    20474 1
   21327    20473    20489 1
   21328    20473    20490 1
   21329    20474    20475 1
   21330    20474    20481 1
   21331    20474    20491 1
   21332    20475    20476 1
   21333    20475    20492 1
   21334    20475    20493 1
   21335    20476    20477 1
   21336    20476    20494 1
   21337    20476    20495 1
   21338    20477    20478 1
   21339    20477    20496 1
   21340    20477    20497 1
   21341    20478    20479 1
   21342    20478    20498 1
   21343    20478    20499 1
   21344    20479    20480 1
   21345    20479    20500 1
   21346    20479    20501 1
   21347    20480    20502 1
   21348    20480    20503 1
   21349    20480    20504 1
   21350    20481    20482 1
   21351    20481    20505 1
   21352    20481    20506 1
   21353    20482    20483 1
   21354    20482    20507 1
   21355    20482    20508 1
   21356    20483    20484 1
   21357    20483    20509 1
   21358    20483    20510 1
   21359    20484    20485 1
   21360    20484    20511 1
   21361    20484    20512 1
   21362    20485    20486 1
   21363    20485    20513 1
   21364    20485    20514 1
   21365    20486    20487 1
   21366    20486    20515 1
   21367    20486    20516 1
   21368    20487    20488 1
   21369    20487    20517 1
   21370    20487    20518 1
   21371    20488    20519 1
   21372    20488    20520 1
   21373    20488    20521 1
   21374    20522    20523 1
   21375    20522    20538 1
   21376    20522    20539 1
   21377    20523    20524 1
   21378    20523    20530 1
   21379    20523    20540 1
   21380    20524    20525 1
   21381    20524    20541 1
   21382    20524    20542 1
   21383    20525    20526 1
   21384    20525    20543 1
   21385    20525    20544 1
   21386    20526    20527 1
   21387    20526    20545 1
   21388    20526    20546 1
   21389    20527    20528 1
   21390    20527    20547 1
   21391    20527    20548 1
   21392    20528    20529 1
   21393    20528    20549 1
   21394    20528    20550 1
   21395    20529    20551 1
   21396    20529    20552 1
   21397    20529    20553 1
   21398    20530    20531 1
   21399    20530    20554 1
   21400    20530    20555 1
   21401    20531    20532 1
   21402    20531    20556 1
   21403    20531    20557 1
   21404    20532    20533 1
   21405    20532    20558 1
   21406    20532    20559 1
   21407    20533    20534 1
   21408    20533    20560 1
   21409    20533    20561 1
   21410    20534    20535 1
   21411    20534    20562 1
   21412    20534    20563 1
   21413    20535    20536 1
   21414    20535    20564 1
   21415    20535    20565 1
   21416    20536    20537 1
   21417    20536    20566 1
   21418    20536    20567 1
   21419    20537    20568 1
   21420    20537    20569 1
   21421    20537    20570 1
   21422    20571    20572 1
   21423    20571    20578 1
   21424    20571    20594 1
   21425    20571    20643 1
   21426    20572    20573 1
   21427    20572    20576 1
   21428    20573    20574 1
   21429    20573    20577 1
   21430    20574    20575 1
   21431    20575    20576 1
   21432    20576    20582 1
   21433    20577    20578 1
   21434    20577    20581 1
   21435    20578    20579 1
   21436    20579    20580 1
   21437    20579    20583 1
   21438    20580    20581 1
   21439    20580    20586 1
   21440    20584    20585 1
   21441    20584    20592 1
   21442    20585    20586 1
   21443    20585    20593 1
   21444    20586    20587 1
   21445    20587    20588 1
   21446    20587    20591 1
   21447    20588    20589 1
   21448    20589    20590 1
   21449    20590    20591 1
   21450    20591    20592 1
   21451    20592    20696 1
   21452    20594    20595 1
   21453    20594    20610 1
   21454    20594    20611 1
   21455    20595    20596 1
   21456    20595    20602 1
   21457    20595    20612 1
   21458    20596    20597 1
   21459    20596    20613 1
   21460    20596    20614 1
   21461    20597    20598 1
   21462    20597    20615 1
   21463    20597    20616 1
   21464    20598    20599 1
   21465    20598    20617 1
   21466    20598    20618 1
   21467    20599    20600 1
   21468    20599    20619 1
   21469    20599    20620 1
   21470    20600    20601 1
   21471    20600    20621 1
   21472    20600    20622 1
   21473    20601    20623 1
   21474    20601    20624 1
   21475    20601    20625 1
   21476    20602    20603 1
   21477    20602    20626 1
   21478    20602    20627 1
   21479    20603    20604 1
   21480    20603    20628 1
   21481    20603    20629 1
   21482    20604    20605 1
   21483    20604    20630 1
   21484    20604    20631 1
   21485    20605    20606 1
   21486    20605    20632 1
   21487    20605    20633 1
   21488    20606    20607 1
   21489    20606    20634 1
   21490    20606    20635 1
   21491    20607    20608 1
   21492    20607    20636 1
   21493    20607    20637 1
   21494    20608    20609 1
   21495    20608    20638 1
   21496    20608    20639 1
   21497    20609    20640 1
   21498    20609    20641 1
   21499    20609    20642 1
   21500    20643    20644 1
   21501    20643    20659 1
   21502    20643    20660 1
   21503    20644    20645 1
   21504    20644    20651 1
   21505    20644    20661 1
   21506    20645    20646 1
   21507    20645    20662 1
   21508    20645    20663 1
   21509    20646    20647 1
   21510    20646    20664 1
   21511    20646    20665 1
   21512    20647    20648 1
   21513    20647    20666 1
   21514    20647    20667 1
   21515    20648    20649 1
   21516    20648    20668 1
   21517    20648    20669 1
   21518    20649    20650 1
   21519    20649    20670 1
   21520    20649    20671 1
   21521    20650    20672 1
   21522    20650    20673 1
   21523    20650    20674 1
   21524    20651    20652 1
   21525    20651    20675 1
   21526    20651    20676 1
   21527    20652    20653 1
   21528    20652    20677 1
   21529    20652    20678 1
   21530    20653    20654 1
   21531    20653    20679 1
   21532    20653    20680 1
   21533    20654    20655 1
   21534    20654    20681 1
   21535    20654    20682 1
   21536    20655    20656 1
   21537    20655    20683 1
   21538    20655    20684 1
   21539    20656    20657 1
   21540    20656    20685 1
   21541    20656    20686 1
   21542    20657    20658 1
   21543    20657    20687 1
   21544    20657    20688 1
   21545    20658    20689 1
   21546    20658    20690 1
   21547    20658    20691 1
   21548    20692    20693 1
   21549    20692    20699 1
   21550    20692    20715 1
   21551    20692    20764 1
   21552    20693    20694 1
   21553    20693    20697 1
   21554    20694    20695 1
   21555    20694    20698 1
   21556    20695    20696 1
   21557    20696    20697 1
   21558    20697    20703 1
   21559    20698    20699 1
   21560    20698    20702 1
   21561    20699    20700 1
   21562    20700    20701 1
   21563    20700    20704 1
   21564    20701    20702 1
   21565    20701    20707 1
   21566    20705    20706 1
   21567    20705    20713 1
   21568    20706    20707 1
   21569    20706    20714 1
   21570    20707    20708 1
   21571    20708    20709 1
   21572    20708    20712 1
   21573    20709    20710 1
   21574    20710    20711 1
   21575    20711    20712 1
   21576    20712    20713 1
   21577    20713    20817 1
   21578    20715    20716 1
   21579    20715    20731 1
   21580    20715    20732 1
   21581    20716    20717 1
   21582    20716    20723 1
   21583    20716    20733 1
   21584    20717    20718 1
   21585    20717    20734 1
   21586    20717    20735 1
   21587    20718    20719 1
   21588    20718    20736 1
   21589    20718    20737 1
   21590    20719    20720 1
   21591    20719    20738 1
   21592    20719    20739 1
   21593    20720    20721 1
   21594    20720    20740 1
   21595    20720    20741 1
   21596    20721    20722 1
   21597    20721    20742 1
   21598    20721    20743 1
   21599    20722    20744 1
   21600    20722    20745 1
   21601    20722    20746 1
   21602    20723    20724 1
   21603    20723    20747 1
   21604    20723    20748 1
   21605    20724    20725 1
   21606    20724    20749 1
   21607    20724    20750 1
   21608    20725    20726 1
   21609    20725    20751 1
   21610    20725    20752 1
   21611    20726    20727 1
   21612    20726    20753 1
   21613    20726    20754 1
   21614    20727    20728 1
   21615    20727    20755 1
   21616    20727    20756 1
   21617    20728    20729 1
   21618    20728    20757 1
   21619    20728    20758 1
   21620    20729    20730 1
   21621    20729    20759 1
   21622    20729    20760 1
   21623    20730    20761 1
   21624    20730    20762 1
   21625    20730    20763 1
   21626    20764    20765 1
   21627    20764    20780 1
   21628    20764    20781 1
   21629    20765    20766 1
   21630    20765    20772 1
   21631    20765    20782 1
   21632    20766    20767 1
   21633    20766    20783 1
   21634    20766    20784 1
   21635    20767    20768 1
   21636    20767    20785 1
   21637    20767    20786 1
   21638    20768    20769 1
   21639    20768    20787 1
   21640    20768    20788 1
   21641    20769    20770 1
   21642    20769    20789 1
   21643    20769    20790 1
   21644    20770    20771 1
   21645    20770    20791 1
   21646    20770    20792 1
   21647    20771    20793 1
   21648    20771    20794 1
   21649    20771    20795 1
   21650    20772    20773 1
   21651    20772    20796 1
   21652    20772    20797 1
   21653    20773    20774 1
   21654    20773    20798 1
   21655    20773    20799 1
   21656    20774    20775 1
   21657    20774    20800 1
   21658    20774    20801 1
   21659    20775    20776 1
   21660    20775    20802 1
   21661    20775    20803 1
   21662    20776    20777 1
   21663    20776    20804 1
   21664    20776    20805 1
   21665    20777    20778 1
   21666    20777    20806 1
   21667    20777    20807 1
   21668    20778    20779 1
   21669    20778    20808 1
   21670    20778    20809 1
   21671    20779    20810 1
   21672    20779    20811 1
   21673    20779    20812 1
   21674    20813    20814 1
   21675    20813    20820 1
   21676    20813    20836 1
   21677    20813    20885 1
   21678    20814    20815 1
   21679    20814    20818 1
   21680    20815    20816 1
   21681    20815    20819 1
   21682    20816    20817 1
   21683    20817    20818 1
   21684    20818    20824 1
   21685    20819    20820 1
   21686    20819    20823 1
   21687    20820    20821 1
   21688    20821    20822 1
   21689    20821    20825 1
   21690    20822    20823 1
   21691    20822    20828 1
   21692    20826    20827 1
   21693    20826    20834 1
   21694    20827    20828 1
   21695    20827    20835 1
   21696    20828    20829 1
   21697    20829    20830 1
   21698    20829    20833 1
   21699    20830    20831 1
   21700    20831    20832 1
   21701    20832    20833 1
   21702    20833    20834 1
   21703    20834    20938 1
   21704    20836    20837 1
   21705    20836    20852 1
   21706    20836    20853 1
   21707    20837    20838 1
   21708    20837    20844 1
   21709    20837    20854 1
   21710    20838    20839 1
   21711    20838    20855 1
   21712    20838    20856 1
   21713    20839    20840 1
   21714    20839    20857 1
   21715    20839    20858 1
   21716    20840    20841 1
   21717    20840    20859 1
   21718    20840    20860 1
   21719    20841    20842 1
   21720    20841    20861 1
   21721    20841    20862 1
   21722    20842    20843 1
   21723    20842    20863 1
   21724    20842    20864 1
   21725    20843    20865 1
   21726    20843    20866 1
   21727    20843    20867 1
   21728    20844    20845 1
   21729    20844    20868 1
   21730    20844    20869 1
   21731    20845    20846 1
   21732    20845    20870 1
   21733    20845    20871 1
   21734    20846    20847 1
   21735    20846    20872 1
   21736    20846    20873 1
   21737    20847    20848 1
   21738    20847    20874 1
   21739    20847    20875 1
   21740    20848    20849 1
   21741    20848    20876 1
   21742    20848    20877 1
   21743    20849    20850 1
   21744    20849    20878 1
   21745    20849    20879 1
   21746    20850    20851 1
   21747    20850    20880 1
   21748    20850    20881 1
   21749    20851    20882 1
   21750    20851    20883 1
   21751    20851    20884 1
   21752    20885    20886 1
   21753    20885    20901 1
   21754    20885    20902 1
   21755    20886    20887 1
   21756    20886    20893 1
   21757    20886    20903 1
   21758    20887    20888 1
   21759    20887    20904 1
   21760    20887    20905 1
   21761    20888    20889 1
   21762    20888    20906 1
   21763    20888    20907 1
   21764    20889    20890 1
   21765    20889    20908 1
   21766    20889    20909 1
   21767    20890    20891 1
   21768    20890    20910 1
   21769    20890    20911 1
   21770    20891    20892 1
   21771    20891    20912 1
   21772    20891    20913 1
   21773    20892    20914 1
   21774    20892    20915 1
   21775    20892    20916 1
   21776    20893    20894 1
   21777    20893    20917 1
   21778    20893    20918 1
   21779    20894    20895 1
   21780    20894    20919 1
   21781    20894    20920 1
   21782    20895    20896 1
   21783    20895    20921 1
   21784    20895    20922 1
   21785    20896    20897 1
   21786    20896    20923 1
   21787    20896    20924 1
   21788    20897    20898 1
   21789    20897    20925 1
   21790    20897    20926 1
   21791    20898    20899 1
   21792    20898    20927 1
   21793    20898    20928 1
   21794    20899    20900 1
   21795    20899    20929 1
   21796    20899    20930 1
   21797    20900    20931 1
   21798    20900    20932 1
   21799    20900    20933 1
   21800    20934    20935 1
   21801    20934    20941 1
   21802    20934    20957 1
   21803    20934    21006 1
   21804    20935    20936 1
   21805    20935    20939 1
   21806    20936    20937 1
   21807    20936    20940 1
   21808    20937    20938 1
   21809    20938    20939 1
   21810    20939    20945 1
   21811    20940    20941 1
   21812    20940    20944 1
   21813    20941    20942 1
   21814    20942    20943 1
   21815    20942    20946 1
   21816    20943    20944 1
   21817    20943    20949 1
   21818    20947    20948 1
   21819    20947    20955 1
   21820    20948    20949 1
   21821    20948    20956 1
   21822    20949    20950 1
   21823    20950    20951 1
   21824    20950    20954 1
   21825    20951    20952 1
   21826    20952    20953 1
   21827    20953    20954 1
   21828    20954    20955 1
   21829    20955    21059 1
   21830    20957    20958 1
   21831    20957    20973 1
   21832    20957    20974 1
   21833    20958    20959 1
   21834    20958    20965 1
   21835    20958    20975 1
   21836    20959    20960 1
   21837    20959    20976 1
   21838    20959    20977 1
   21839    20960    20961 1
   21840    20960    20978 1
   21841    20960    20979 1
   21842    20961    20962 1
   21843    20961    20980 1
   21844    20961    20981 1
   21845    20962    20963 1
   21846    20962    20982 1
   21847    20962    20983 1
   21848    20963    20964 1
   21849    20963    20984 1
   21850    20963    20985 1
   21851    20964    20986 1
   21852    20964    20987 1
   21853    20964    20988 1
   21854    20965    20966 1
   21855    20965    20989 1
   21856    20965    20990 1
   21857    20966    20967 1
   21858    20966    20991 1
   21859    20966    20992 1
   21860    20967    20968 1
   21861    20967    20993 1
   21862    20967    20994 1
   21863    20968    20969 1
   21864    20968    20995 1
   21865    20968    20996 1
   21866    20969    20970 1
   21867    20969    20997 1
   21868    20969    20998 1
   21869    20970    20971 1
   21870    20970    20999 1
   21871    20970    21000 1
   21872    20971    20972 1
   21873    20971    21001 1
   21874    20971    21002 1
   21875    20972    21003 1
   21876    20972    21004 1
   21877    20972    21005 1
   21878    21006    21007 1
   21879    21006    21022 1
   21880    21006    21023 1
   21881    21007    21008 1
   21882    21007    21014 1
   21883    21007    21024 1
   21884    21008    21009 1
   21885    21008    21025 1
   21886    21008    21026 1
   21887    21009    21010 1
   21888    21009    21027 1
   21889    21009    21028 1
   21890    21010    21011 1
   21891    21010    21029 1
   21892    21010    21030 1
   21893    21011    21012 1
   21894    21011    21031 1
   21895    21011    21032 1
   21896    21012    21013 1
   21897    21012    21033 1
   21898    21012    21034 1
   21899    21013    21035 1
   21900    21013    21036 1
   21901    21013    21037 1
   21902    21014    21015 1
   21903    21014    21038 1
   21904    21014    21039 1
   21905    21015    21016 1
   21906    21015    21040 1
   21907    21015    21041 1
   21908    21016    21017 1
   21909    21016    21042 1
   21910    21016    21043 1
   21911    21017    21018 1
   21912    21017    21044 1
   21913    21017    21045 1
   21914    21018    21019 1
   21915    21018    21046 1
   21916    21018    21047 1
   21917    21019    21020 1
   21918    21019    21048 1
   21919    21019    21049 1
   21920    21020    21021 1
   21921    21020    21050 1
   21922    21020    21051 1
   21923    21021    21052 1
   21924    21021    21053 1
   21925    21021    21054 1
   21926    21055    21056 1
   21927    21055    21062 1
   21928    21055    21078 1
   21929    21055    21127 1
   21930    21056    21057 1
   21931    21056    21060 1
   21932    21057    21058 1
   21933    21057    21061 1
   21934    21058    21059 1
   21935    21059    21060 1
   21936    21060    21066 1
   21937    21061    21062 1
   21938    21061    21065 1
   21939    21062    21063 1
   21940    21063    21064 1
   21941    21063    21067 1
   21942    21064    21065 1
   21943    21064    21070 1
   21944    21068    21069 1
   21945    21068    21076 1
   21946    21069    21070 1
   21947    21069    21077 1
   21948    21070    21071 1
   21949    21071    21072 1
   21950    21071    21075 1
   21951    21072    21073 1
   21952    21073    21074 1
   21953    21074    21075 1
   21954    21075    21076 1
   21955    21076    21180 1
   21956    21078    21079 1
   21957    21078    21094 1
   21958    21078    21095 1
   21959    21079    21080 1
   21960    21079    21086 1
   21961    21079    21096 1
   21962    21080    21081 1
   21963    21080    21097 1
   21964    21080    21098 1
   21965    21081    21082 1
   21966    21081    21099 1
   21967    21081    21100 1
   21968    21082    21083 1
   21969    21082    21101 1
   21970    21082    21102 1
   21971    21083    21084 1
   21972    21083    21103 1
   21973    21083    21104 1
   21974    21084    21085 1
   21975    21084    21105 1
   21976    21084    21106 1
   21977    21085    21107 1
   21978    21085    21108 1
   21979    21085    21109 1
   21980    21086    21087 1
   21981    21086    21110 1
   21982    21086    21111 1
   21983    21087    21088 1
   21984    21087    21112 1
   21985    21087    21113 1
   21986    21088    21089 1
   21987    21088    21114 1
   21988    21088    21115 1
   21989    21089    21090 1
   21990    21089    21116 1
   21991    21089    21117 1
   21992    21090    21091 1
   21993    21090    21118 1
   21994    21090    21119 1
   21995    21091    21092 1
   21996    21091    21120 1
   21997    21091    21121 1
   21998    21092    21093 1
   21999    21092    21122 1
   22000    21092    21123 1
   22001    21093    21124 1
   22002    21093    21125 1
   22003    21093    21126 1
   22004    21127    21128 1
   22005    21127    21143 1
   22006    21127    21144 1
   22007    21128    21129 1
   22008    21128    21135 1
   22009    21128    21145 1
   22010    21129    21130 1
   22011    21129    21146 1
   22012    21129    21147 1
   22013    21130    21131 1
   22014    21130    21148 1
   22015    21130    21149 1
   22016    21131    21132 1
   22017    21131    21150 1
   22018    21131    21151 1
   22019    21132    21133 1
   22020    21132    21152 1
   22021    21132    21153 1
   22022    21133    21134 1
   22023    21133    21154 1
   22024    21133    21155 1
   22025    21134    21156 1
   22026    21134    21157 1
   22027    21134    21158 1
   22028    21135    21136 1
   22029    21135    21159 1
   22030    21135    21160 1
   22031    21136    21137 1
   22032    21136    21161 1
   22033    21136    21162 1
   22034    21137    21138 1
   22035    21137    21163 1
   22036    21137    21164 1
   22037    21138    21139 1
   22038    21138    21165 1
   22039    21138    21166 1
   22040    21139    21140 1
   22041    21139    21167 1
   22042    21139    21168 1
   22043    21140    21141 1
   22044    21140    21169 1
   22045    21140    21170 1
   22046    21141    21142 1
   22047    21141    21171 1
   22048    21141    21172 1
   22049    21142    21173 1
   22050    21142    21174 1
   22051    21142    21175 1
   22052    21176    21177 1
   22053    21176    21183 1
   22054    21176    21199 1
   22055    21176    21248 1
   22056    21177    21178 1
   22057    21177    21181 1
   22058    21178    21179 1
   22059    21178    21182 1
   22060    21179    21180 1
   22061    21180    21181 1
   22062    21181    21187 1
   22063    21182    21183 1
   22064    21182    21186 1
   22065    21183    21184 1
   22066    21184    21185 1
   22067    21184    21188 1
   22068    21185    21186 1
   22069    21185    21191 1
   22070    21189    21190 1
   22071    21189    21197 1
   22072    21190    21191 1
   22073    21190    21198 1
   22074    21191    21192 1
   22075    21192    21193 1
   22076    21192    21196 1
   22077    21193    21194 1
   22078    21194    21195 1
   22079    21195    21196 1
   22080    21196    21197 1
   22081    21197    21301 1
   22082    21199    21200 1
   22083    21199    21215 1
   22084    21199    21216 1
   22085    21200    21201 1
   22086    21200    21207 1
   22087    21200    21217 1
   22088    21201    21202 1
   22089    21201    21218 1
   22090    21201    21219 1
   22091    21202    21203 1
   22092    21202    21220 1
   22093    21202    21221 1
   22094    21203    21204 1
   22095    21203    21222 1
   22096    21203    21223 1
   22097    21204    21205 1
   22098    21204    21224 1
   22099    21204    21225 1
   22100    21205    21206 1
   22101    21205    21226 1
   22102    21205    21227 1
   22103    21206    21228 1
   22104    21206    21229 1
   22105    21206    21230 1
   22106    21207    21208 1
   22107    21207    21231 1
   22108    21207    21232 1
   22109    21208    21209 1
   22110    21208    21233 1
   22111    21208    21234 1
   22112    21209    21210 1
   22113    21209    21235 1
   22114    21209    21236 1
   22115    21210    21211 1
   22116    21210    21237 1
   22117    21210    21238 1
   22118    21211    21212 1
   22119    21211    21239 1
   22120    21211    21240 1
   22121    21212    21213 1
   22122    21212    21241 1
   22123    21212    21242 1
   22124    21213    21214 1
   22125    21213    21243 1
   22126    21213    21244 1
   22127    21214    21245 1
   22128    21214    21246 1
   22129    21214    21247 1
   22130    21248    21249 1
   22131    21248    21264 1
   22132    21248    21265 1
   22133    21249    21250 1
   22134    21249    21256 1
   22135    21249    21266 1
   22136    21250    21251 1
   22137    21250    21267 1
   22138    21250    21268 1
   22139    21251    21252 1
   22140    21251    21269 1
   22141    21251    21270 1
   22142    21252    21253 1
   22143    21252    21271 1
   22144    21252    21272 1
   22145    21253    21254 1
   22146    21253    21273 1
   22147    21253    21274 1
   22148    21254    21255 1
   22149    21254    21275 1
   22150    21254    21276 1
   22151    21255    21277 1
   22152    21255    21278 1
   22153    21255    21279 1
   22154    21256    21257 1
   22155    21256    21280 1
   22156    21256    21281 1
   22157    21257    21258 1
   22158    21257    21282 1
   22159    21257    21283 1
   22160    21258    21259 1
   22161    21258    21284 1
   22162    21258    21285 1
   22163    21259    21260 1
   22164    21259    21286 1
   22165    21259    21287 1
   22166    21260    21261 1
   22167    21260    21288 1
   22168    21260    21289 1
   22169    21261    21262 1
   22170    21261    21290 1
   22171    21261    21291 1
   22172    21262    21263 1
   22173    21262    21292 1
   22174    21262    21293 1
   22175    21263    21294 1
   22176    21263    21295 1
   22177    21263    21296 1
   22178    21297    21298 1
   22179    21297    21304 1
   22180    21297    21320 1
   22181    21297    21369 1
   22182    21298    21299 1
   22183    21298    21302 1
   22184    21299    21300 1
   22185    21299    21303 1
   22186    21300    21301 1
   22187    21301    21302 1
   22188    21302    21308 1
   22189    21303    21304 1
   22190    21303    21307 1
   22191    21304    21305 1
   22192    21305    21306 1
   22193    21305    21309 1
   22194    21306    21307 1
   22195    21306    21312 1
   22196    21310    21311 1
   22197    21310    21318 1
   22198    21311    21312 1
   22199    21311    21319 1
   22200    21312    21313 1
   22201    21313    21314 1
   22202    21313    21317 1
   22203    21314    21315 1
   22204    21315    21316 1
   22205    21316    21317 1
   22206    21317    21318 1
   22207    21318    21422 1
   22208    21320    21321 1
   22209    21320    21336 1
   22210    21320    21337 1
   22211    21321    21322 1
   22212    21321    21328 1
   22213    21321    21338 1
   22214    21322    21323 1
   22215    21322    21339 1
   22216    21322    21340 1
   22217    21323    21324 1
   22218    21323    21341 1
   22219    21323    21342 1
   22220    21324    21325 1
   22221    21324    21343 1
   22222    21324    21344 1
   22223    21325    21326 1
   22224    21325    21345 1
   22225    21325    21346 1
   22226    21326    21327 1
   22227    21326    21347 1
   22228    21326    21348 1
   22229    21327    21349 1
   22230    21327    21350 1
   22231    21327    21351 1
   22232    21328    21329 1
   22233    21328    21352 1
   22234    21328    21353 1
   22235    21329    21330 1
   22236    21329    21354 1
   22237    21329    21355 1
   22238    21330    21331 1
   22239    21330    21356 1
   22240    21330    21357 1
   22241    21331    21332 1
   22242    21331    21358 1
   22243    21331    21359 1
   22244    21332    21333 1
   22245    21332    21360 1
   22246    21332    21361 1
   22247    21333    21334 1
   22248    21333    21362 1
   22249    21333    21363 1
   22250    21334    21335 1
   22251    21334    21364 1
   22252    21334    21365 1
   22253    21335    21366 1
   22254    21335    21367 1
   22255    21335    21368 1
   22256    21369    21370 1
   22257    21369    21385 1
   22258    21369    21386 1
   22259    21370    21371 1
   22260    21370    21377 1
   22261    21370    21387 1
   22262    21371    21372 1
   22263    21371    21388 1
   22264    21371    21389 1
   22265    21372    21373 1
   22266    21372    21390 1
   22267    21372    21391 1
   22268    21373    21374 1
   22269    21373    21392 1
   22270    21373    21393 1
   22271    21374    21375 1
   22272    21374    21394 1
   22273    21374    21395 1
   22274    21375    21376 1
   22275    21375    21396 1
   22276    21375    21397 1
   22277    21376    21398 1
   22278    21376    21399 1
   22279    21376    21400 1
   22280    21377    21378 1
   22281    21377    21401 1
   22282    21377    21402 1
   22283    21378    21379 1
   22284    21378    21403 1
   22285    21378    21404 1
   22286    21379    21380 1
   22287    21379    21405 1
   22288    21379    21406 1
   22289    21380    21381 1
   22290    21380    21407 1
   22291    21380    21408 1
   22292    21381    21382 1
   22293    21381    21409 1
   22294    21381    21410 1
   22295    21382    21383 1
   22296    21382    21411 1
   22297    21382    21412 1
   22298    21383    21384 1
   22299    21383    21413 1
   22300    21383    21414 1
   22301    21384    21415 1
   22302    21384    21416 1
   22303    21384    21417 1
   22304    21418    21419 1
   22305    21418    21425 1
   22306    21418    21441 1
   22307    21418    21490 1
   22308    21419    21420 1
   22309    21419    21423 1
   22310    21420    21421 1
   22311    21420    21424 1
   22312    21421    21422 1
   22313    21422    21423 1
   22314    21423    21429 1
   22315    21424    21425 1
   22316    21424    21428 1
   22317    21425    21426 1
   22318    21426    21427 1
   22319    21426    21430 1
   22320    21427    21428 1
   22321    21427    21433 1
   22322    21431    21432 1
   22323    21431    21439 1
   22324    21432    21433 1
   22325    21432    21440 1
   22326    21433    21434 1
   22327    21434    21435 1
   22328    21434    21438 1
   22329    21435    21436 1
   22330    21436    21437 1
   22331    21437    21438 1
   22332    21438    21439 1
   22333    21439    21543 1
   22334    21441    21442 1
   22335    21441    21457 1
   22336    21441    21458 1
   22337    21442    21443 1
   22338    21442    21449 1
   22339    21442    21459 1
   22340    21443    21444 1
   22341    21443    21460 1
   22342    21443    21461 1
   22343    21444    21445 1
   22344    21444    21462 1
   22345    21444    21463 1
   22346    21445    21446 1
   22347    21445    21464 1
   22348    21445    21465 1
   22349    21446    21447 1
   22350    21446    21466 1
   22351    21446    21467 1
   22352    21447    21448 1
   22353    21447    21468 1
   22354    21447    21469 1
   22355    21448    21470 1
   22356    21448    21471 1
   22357    21448    21472 1
   22358    21449    21450 1
   22359    21449    21473 1
   22360    21449    21474 1
   22361    21450    21451 1
   22362    21450    21475 1
   22363    21450    21476 1
   22364    21451    21452 1
   22365    21451    21477 1
   22366    21451    21478 1
   22367    21452    21453 1
   22368    21452    21479 1
   22369    21452    21480 1
   22370    21453    21454 1
   22371    21453    21481 1
   22372    21453    21482 1
   22373    21454    21455 1
   22374    21454    21483 1
   22375    21454    21484 1
   22376    21455    21456 1
   22377    21455    21485 1
   22378    21455    21486 1
   22379    21456    21487 1
   22380    21456    21488 1
   22381    21456    21489 1
   22382    21490    21491 1
   22383    21490    21506 1
   22384    21490    21507 1
   22385    21491    21492 1
   22386    21491    21498 1
   22387    21491    21508 1
   22388    21492    21493 1
   22389    21492    21509 1
   22390    21492    21510 1
   22391    21493    21494 1
   22392    21493    21511 1
   22393    21493    21512 1
   22394    21494    21495 1
   22395    21494    21513 1
   22396    21494    21514 1
   22397    21495    21496 1
   22398    21495    21515 1
   22399    21495    21516 1
   22400    21496    21497 1
   22401    21496    21517 1
   22402    21496    21518 1
   22403    21497    21519 1
   22404    21497    21520 1
   22405    21497    21521 1
   22406    21498    21499 1
   22407    21498    21522 1
   22408    21498    21523 1
   22409    21499    21500 1
   22410    21499    21524 1
   22411    21499    21525 1
   22412    21500    21501 1
   22413    21500    21526 1
   22414    21500    21527 1
   22415    21501    21502 1
   22416    21501    21528 1
   22417    21501    21529 1
   22418    21502    21503 1
   22419    21502    21530 1
   22420    21502    21531 1
   22421    21503    21504 1
   22422    21503    21532 1
   22423    21503    21533 1
   22424    21504    21505 1
   22425    21504    21534 1
   22426    21504    21535 1
   22427    21505    21536 1
   22428    21505    21537 1
   22429    21505    21538 1
   22430    21539    21540 1
   22431    21539    21546 1
   22432    21539    21562 1
   22433    21539    21611 1
   22434    21540    21541 1
   22435    21540    21544 1
   22436    21541    21542 1
   22437    21541    21545 1
   22438    21542    21543 1
   22439    21543    21544 1
   22440    21544    21550 1
   22441    21545    21546 1
   22442    21545    21549 1
   22443    21546    21547 1
   22444    21547    21548 1
   22445    21547    21551 1
   22446    21548    21549 1
   22447    21548    21554 1
   22448    21552    21553 1
   22449    21552    21560 1
   22450    21553    21554 1
   22451    21553    21561 1
   22452    21554    21555 1
   22453    21555    21556 1
   22454    21555    21559 1
   22455    21556    21557 1
   22456    21557    21558 1
   22457    21558    21559 1
   22458    21559    21560 1
   22459    21560    21664 1
   22460    21562    21563 1
   22461    21562    21578 1
   22462    21562    21579 1
   22463    21563    21564 1
   22464    21563    21570 1
   22465    21563    21580 1
   22466    21564    21565 1
   22467    21564    21581 1
   22468    21564    21582 1
   22469    21565    21566 1
   22470    21565    21583 1
   22471    21565    21584 1
   22472    21566    21567 1
   22473    21566    21585 1
   22474    21566    21586 1
   22475    21567    21568 1
   22476    21567    21587 1
   22477    21567    21588 1
   22478    21568    21569 1
   22479    21568    21589 1
   22480    21568    21590 1
   22481    21569    21591 1
   22482    21569    21592 1
   22483    21569    21593 1
   22484    21570    21571 1
   22485    21570    21594 1
   22486    21570    21595 1
   22487    21571    21572 1
   22488    21571    21596 1
   22489    21571    21597 1
   22490    21572    21573 1
   22491    21572    21598 1
   22492    21572    21599 1
   22493    21573    21574 1
   22494    21573    21600 1
   22495    21573    21601 1
   22496    21574    21575 1
   22497    21574    21602 1
   22498    21574    21603 1
   22499    21575    21576 1
   22500    21575    21604 1
   22501    21575    21605 1
   22502    21576    21577 1
   22503    21576    21606 1
   22504    21576    21607 1
   22505    21577    21608 1
   22506    21577    21609 1
   22507    21577    21610 1
   22508    21611    21612 1
   22509    21611    21627 1
   22510    21611    21628 1
   22511    21612    21613 1
   22512    21612    21619 1
   22513    21612    21629 1
   22514    21613    21614 1
   22515    21613    21630 1
   22516    21613    21631 1
   22517    21614    21615 1
   22518    21614    21632 1
   22519    21614    21633 1
   22520    21615    21616 1
   22521    21615    21634 1
   22522    21615    21635 1
   22523    21616    21617 1
   22524    21616    21636 1
   22525    21616    21637 1
   22526    21617    21618 1
   22527    21617    21638 1
   22528    21617    21639 1
   22529    21618    21640 1
   22530    21618    21641 1
   22531    21618    21642 1
   22532    21619    21620 1
   22533    21619    21643 1
   22534    21619    21644 1
   22535    21620    21621 1
   22536    21620    21645 1
   22537    21620    21646 1
   22538    21621    21622 1
   22539    21621    21647 1
   22540    21621    21648 1
   22541    21622    21623 1
   22542    21622    21649 1
   22543    21622    21650 1
   22544    21623    21624 1
   22545    21623    21651 1
   22546    21623    21652 1
   22547    21624    21625 1
   22548    21624    21653 1
   22549    21624    21654 1
   22550    21625    21626 1
   22551    21625    21655 1
   22552    21625    21656 1
   22553    21626    21657 1
   22554    21626    21658 1
   22555    21626    21659 1
   22556    21660    21661 1
   22557    21660    21667 1
   22558    21660    21683 1
   22559    21660    21732 1
   22560    21661    21662 1
   22561    21661    21665 1
   22562    21662    21663 1
   22563    21662    21666 1
   22564    21663    21664 1
   22565    21664    21665 1
   22566    21665    21671 1
   22567    21666    21667 1
   22568    21666    21670 1
   22569    21667    21668 1
   22570    21668    21669 1
   22571    21668    21672 1
   22572    21669    21670 1
   22573    21669    21675 1
   22574    21673    21674 1
   22575    21673    21681 1
   22576    21674    21675 1
   22577    21674    21682 1
   22578    21675    21676 1
   22579    21676    21677 1
   22580    21676    21680 1
   22581    21677    21678 1
   22582    21678    21679 1
   22583    21679    21680 1
   22584    21680    21681 1
   22585    21681    21785 1
   22586    21683    21684 1
   22587    21683    21699 1
   22588    21683    21700 1
   22589    21684    21685 1
   22590    21684    21691 1
   22591    21684    21701 1
   22592    21685    21686 1
   22593    21685    21702 1
   22594    21685    21703 1
   22595    21686    21687 1
   22596    21686    21704 1
   22597    21686    21705 1
   22598    21687    21688 1
   22599    21687    21706 1
   22600    21687    21707 1
   22601    21688    21689 1
   22602    21688    21708 1
   22603    21688    21709 1
   22604    21689    21690 1
   22605    21689    21710 1
   22606    21689    21711 1
   22607    21690    21712 1
   22608    21690    21713 1
   22609    21690    21714 1
   22610    21691    21692 1
   22611    21691    21715 1
   22612    21691    21716 1
   22613    21692    21693 1
   22614    21692    21717 1
   22615    21692    21718 1
   22616    21693    21694 1
   22617    21693    21719 1
   22618    21693    21720 1
   22619    21694    21695 1
   22620    21694    21721 1
   22621    21694    21722 1
   22622    21695    21696 1
   22623    21695    21723 1
   22624    21695    21724 1
   22625    21696    21697 1
   22626    21696    21725 1
   22627    21696    21726 1
   22628    21697    21698 1
   22629    21697    21727 1
   22630    21697    21728 1
   22631    21698    21729 1
   22632    21698    21730 1
   22633    21698    21731 1
   22634    21732    21733 1
   22635    21732    21748 1
   22636    21732    21749 1
   22637    21733    21734 1
   22638    21733    21740 1
   22639    21733    21750 1
   22640    21734    21735 1
   22641    21734    21751 1
   22642    21734    21752 1
   22643    21735    21736 1
   22644    21735    21753 1
   22645    21735    21754 1
   22646    21736    21737 1
   22647    21736    21755 1
   22648    21736    21756 1
   22649    21737    21738 1
   22650    21737    21757 1
   22651    21737    21758 1
   22652    21738    21739 1
   22653    21738    21759 1
   22654    21738    21760 1
   22655    21739    21761 1
   22656    21739    21762 1
   22657    21739    21763 1
   22658    21740    21741 1
   22659    21740    21764 1
   22660    21740    21765 1
   22661    21741    21742 1
   22662    21741    21766 1
   22663    21741    21767 1
   22664    21742    21743 1
   22665    21742    21768 1
   22666    21742    21769 1
   22667    21743    21744 1
   22668    21743    21770 1
   22669    21743    21771 1
   22670    21744    21745 1
   22671    21744    21772 1
   22672    21744    21773 1
   22673    21745    21746 1
   22674    21745    21774 1
   22675    21745    21775 1
   22676    21746    21747 1
   22677    21746    21776 1
   22678    21746    21777 1
   22679    21747    21778 1
   22680    21747    21779 1
   22681    21747    21780 1
   22682    21781    21782 1
   22683    21781    21788 1
   22684    21781    21804 1
   22685    21781    21853 1
   22686    21782    21783 1
   22687    21782    21786 1
   22688    21783    21784 1
   22689    21783    21787 1
   22690    21784    21785 1
   22691    21785    21786 1
   22692    21786    21792 1
   22693    21787    21788 1
   22694    21787    21791 1
   22695    21788    21789 1
   22696    21789    21790 1
   22697    21789    21793 1
   22698    21790    21791 1
   22699    21790    21796 1
   22700    21794    21795 1
   22701    21794    21802 1
   22702    21795    21796 1
   22703    21795    21803 1
   22704    21796    21797 1
   22705    21797    21798 1
   22706    21797    21801 1
   22707    21798    21799 1
   22708    21799    21800 1
   22709    21800    21801 1
   22710    21801    21802 1
   22711    21802    21906 1
   22712    21804    21805 1
   22713    21804    21820 1
   22714    21804    21821 1
   22715    21805    21806 1
   22716    21805    21812 1
   22717    21805    21822 1
   22718    21806    21807 1
   22719    21806    21823 1
   22720    21806    21824 1
   22721    21807    21808 1
   22722    21807    21825 1
   22723    21807    21826 1
   22724    21808    21809 1
   22725    21808    21827 1
   22726    21808    21828 1
   22727    21809    21810 1
   22728    21809    21829 1
   22729    21809    21830 1
   22730    21810    21811 1
   22731    21810    21831 1
   22732    21810    21832 1
   22733    21811    21833 1
   22734    21811    21834 1
   22735    21811    21835 1
   22736    21812    21813 1
   22737    21812    21836 1
   22738    21812    21837 1
   22739    21813    21814 1
   22740    21813    21838 1
   22741    21813    21839 1
   22742    21814    21815 1
   22743    21814    21840 1
   22744    21814    21841 1
   22745    21815    21816 1
   22746    21815    21842 1
   22747    21815    21843 1
   22748    21816    21817 1
   22749    21816    21844 1
   22750    21816    21845 1
   22751    21817    21818 1
   22752    21817    21846 1
   22753    21817    21847 1
   22754    21818    21819 1
   22755    21818    21848 1
   22756    21818    21849 1
   22757    21819    21850 1
   22758    21819    21851 1
   22759    21819    21852 1
   22760    21853    21854 1
   22761    21853    21869 1
   22762    21853    21870 1
   22763    21854    21855 1
   22764    21854    21861 1
   22765    21854    21871 1
   22766    21855    21856 1
   22767    21855    21872 1
   22768    21855    21873 1
   22769    21856    21857 1
   22770    21856    21874 1
   22771    21856    21875 1
   22772    21857    21858 1
   22773    21857    21876 1
   22774    21857    21877 1
   22775    21858    21859 1
   22776    21858    21878 1
   22777    21858    21879 1
   22778    21859    21860 1
   22779    21859    21880 1
   22780    21859    21881 1
   22781    21860    21882 1
   22782    21860    21883 1
   22783    21860    21884 1
   22784    21861    21862 1
   22785    21861    21885 1
   22786    21861    21886 1
   22787    21862    21863 1
   22788    21862    21887 1
   22789    21862    21888 1
   22790    21863    21864 1
   22791    21863    21889 1
   22792    21863    21890 1
   22793    21864    21865 1
   22794    21864    21891 1
   22795    21864    21892 1
   22796    21865    21866 1
   22797    21865    21893 1
   22798    21865    21894 1
   22799    21866    21867 1
   22800    21866    21895 1
   22801    21866    21896 1
   22802    21867    21868 1
   22803    21867    21897 1
   22804    21867    21898 1
   22805    21868    21899 1
   22806    21868    21900 1
   22807    21868    21901 1
   22808    21902    21903 1
   22809    21902    21909 1
   22810    21902    21925 1
   22811    21902    21974 1
   22812    21903    21904 1
   22813    21903    21907 1
   22814    21904    21905 1
   22815    21904    21908 1
   22816    21905    21906 1
   22817    21906    21907 1
   22818    21907    21913 1
   22819    21908    21909 1
   22820    21908    21912 1
   22821    21909    21910 1
   22822    21910    21911 1
   22823    21910    21914 1
   22824    21911    21912 1
   22825    21911    21917 1
   22826    21915    21916 1
   22827    21915    21923 1
   22828    21916    21917 1
   22829    21916    21924 1
   22830    21917    21918 1
   22831    21918    21919 1
   22832    21918    21922 1
   22833    21919    21920 1
   22834    21920    21921 1
   22835    21921    21922 1
   22836    21922    21923 1
   22837    21923    22027 1
   22838    21925    21926 1
   22839    21925    21941 1
   22840    21925    21942 1
   22841    21926    21927 1
   22842    21926    21933 1
   22843    21926    21943 1
   22844    21927    21928 1
   22845    21927    21944 1
   22846    21927    21945 1
   22847    21928    21929 1
   22848    21928    21946 1
   22849    21928    21947 1
   22850    21929    21930 1
   22851    21929    21948 1
   22852    21929    21949 1
   22853    21930    21931 1
   22854    21930    21950 1
   22855    21930    21951 1
   22856    21931    21932 1
   22857    21931    21952 1
   22858    21931    21953 1
   22859    21932    21954 1
   22860    21932    21955 1
   22861    21932    21956 1
   22862    21933    21934 1
   22863    21933    21957 1
   22864    21933    21958 1
   22865    21934    21935 1
   22866    21934    21959 1
   22867    21934    21960 1
   22868    21935    21936 1
   22869    21935    21961 1
   22870    21935    21962 1
   22871    21936    21937 1
   22872    21936    21963 1
   22873    21936    21964 1
   22874    21937    21938 1
   22875    21937    21965 1
   22876    21937    21966 1
   22877    21938    21939 1
   22878    21938    21967 1
   22879    21938    21968 1
   22880    21939    21940 1
   22881    21939    21969 1
   22882    21939    21970 1
   22883    21940    21971 1
   22884    21940    21972 1
   22885    21940    21973 1
   22886    21974    21975 1
   22887    21974    21990 1
   22888    21974    21991 1
   22889    21975    21976 1
   22890    21975    21982 1
   22891    21975    21992 1
   22892    21976    21977 1
   22893    21976    21993 1
   22894    21976    21994 1
   22895    21977    21978 1
   22896    21977    21995 1
   22897    21977    21996 1
   22898    21978    21979 1
   22899    21978    21997 1
   22900    21978    21998 1
   22901    21979    21980 1
   22902    21979    21999 1
   22903    21979    22000 1
   22904    21980    21981 1
   22905    21980    22001 1
   22906    21980    22002 1
   22907    21981    22003 1
   22908    21981    22004 1
   22909    21981    22005 1
   22910    21982    21983 1
   22911    21982    22006 1
   22912    21982    22007 1
   22913    21983    21984 1
   22914    21983    22008 1
   22915    21983    22009 1
   22916    21984    21985 1
   22917    21984    22010 1
   22918    21984    22011 1
   22919    21985    21986 1
   22920    21985    22012 1
   22921    21985    22013 1
   22922    21986    21987 1
   22923    21986    22014 1
   22924    21986    22015 1
   22925    21987    21988 1
   22926    21987    22016 1
   22927    21987    22017 1
   22928    21988    21989 1
   22929    21988    22018 1
   22930    21988    22019 1
   22931    21989    22020 1
   22932    21989    22021 1
   22933    21989    22022 1
   22934    22023    22024 1
   22935    22023    22030 1
   22936    22023    22046 1
   22937    22023    22095 1
   22938    22024    22025 1
   22939    22024    22028 1
   22940    22025    22026 1
   22941    22025    22029 1
   22942    22026    22027 1
   22943    22027    22028 1
   22944    22028    22034 1
   22945    22029    22030 1
   22946    22029    22033 1
   22947    22030    22031 1
   22948    22031    22032 1
   22949    22031    22035 1
   22950    22032    22033 1
   22951    22032    22038 1
   22952    22036    22037 1
   22953    22036    22044 1
   22954    22037    22038 1
   22955    22037    22045 1
   22956    22038    22039 1
   22957    22039    22040 1
   22958    22039    22043 1
   22959    22040    22041 1
   22960    22041    22042 1
   22961    22042    22043 1
   22962    22043    22044 1
   22963    22044    22148 1
   22964    22046    22047 1
   22965    22046    22062 1
   22966    22046    22063 1
   22967    22047    22048 1
   22968    22047    22054 1
   22969    22047    22064 1
   22970    22048    22049 1
   22971    22048    22065 1
   22972    22048    22066 1
   22973    22049    22050 1
   22974    22049    22067 1
   22975    22049    22068 1
   22976    22050    22051 1
   22977    22050    22069 1
   22978    22050    22070 1
   22979    22051    22052 1
   22980    22051    22071 1
   22981    22051    22072 1
   22982    22052    22053 1
   22983    22052    22073 1
   22984    22052    22074 1
   22985    22053    22075 1
   22986    22053    22076 1
   22987    22053    22077 1
   22988    22054    22055 1
   22989    22054    22078 1
   22990    22054    22079 1
   22991    22055    22056 1
   22992    22055    22080 1
   22993    22055    22081 1
   22994    22056    22057 1
   22995    22056    22082 1
   22996    22056    22083 1
   22997    22057    22058 1
   22998    22057    22084 1
   22999    22057    22085 1
   23000    22058    22059 1
   23001    22058    22086 1
   23002    22058    22087 1
   23003    22059    22060 1
   23004    22059    22088 1
   23005    22059    22089 1
   23006    22060    22061 1
   23007    22060    22090 1
   23008    22060    22091 1
   23009    22061    22092 1
   23010    22061    22093 1
   23011    22061    22094 1
   23012    22095    22096 1
   23013    22095    22111 1
   23014    22095    22112 1
   23015    22096    22097 1
   23016    22096    22103 1
   23017    22096    22113 1
   23018    22097    22098 1
   23019    22097    22114 1
   23020    22097    22115 1
   23021    22098    22099 1
   23022    22098    22116 1
   23023    22098    22117 1
   23024    22099    22100 1
   23025    22099    22118 1
   23026    22099    22119 1
   23027    22100    22101 1
   23028    22100    22120 1
   23029    22100    22121 1
   23030    22101    22102 1
   23031    22101    22122 1
   23032    22101    22123 1
   23033    22102    22124 1
   23034    22102    22125 1
   23035    22102    22126 1
   23036    22103    22104 1
   23037    22103    22127 1
   23038    22103    22128 1
   23039    22104    22105 1
   23040    22104    22129 1
   23041    22104    22130 1
   23042    22105    22106 1
   23043    22105    22131 1
   23044    22105    22132 1
   23045    22106    22107 1
   23046    22106    22133 1
   23047    22106    22134 1
   23048    22107    22108 1
   23049    22107    22135 1
   23050    22107    22136 1
   23051    22108    22109 1
   23052    22108    22137 1
   23053    22108    22138 1
   23054    22109    22110 1
   23055    22109    22139 1
   23056    22109    22140 1
   23057    22110    22141 1
   23058    22110    22142 1
   23059    22110    22143 1
   23060    22144    22145 1
   23061    22144    22151 1
   23062    22144    22167 1
   23063    22144    22216 1
   23064    22145    22146 1
   23065    22145    22149 1
   23066    22146    22147 1
   23067    22146    22150 1
   23068    22147    22148 1
   23069    22148    22149 1
   23070    22149    22155 1
   23071    22150    22151 1
   23072    22150    22154 1
   23073    22151    22152 1
   23074    22152    22153 1
   23075    22152    22156 1
   23076    22153    22154 1
   23077    22153    22159 1
   23078    22157    22158 1
   23079    22157    22165 1
   23080    22158    22159 1
   23081    22158    22166 1
   23082    22159    22160 1
   23083    22160    22161 1
   23084    22160    22164 1
   23085    22161    22162 1
   23086    22162    22163 1
   23087    22163    22164 1
   23088    22164    22165 1
   23089    22165    22269 1
   23090    22167    22168 1
   23091    22167    22183 1
   23092    22167    22184 1
   23093    22168    22169 1
   23094    22168    22175 1
   23095    22168    22185 1
   23096    22169    22170 1
   23097    22169    22186 1
   23098    22169    22187 1
   23099    22170    22171 1
   23100    22170    22188 1
   23101    22170    22189 1
   23102    22171    22172 1
   23103    22171    22190 1
   23104    22171    22191 1
   23105    22172    22173 1
   23106    22172    22192 1
   23107    22172    22193 1
   23108    22173    22174 1
   23109    22173    22194 1
   23110    22173    22195 1
   23111    22174    22196 1
   23112    22174    22197 1
   23113    22174    22198 1
   23114    22175    22176 1
   23115    22175    22199 1
   23116    22175    22200 1
   23117    22176    22177 1
   23118    22176    22201 1
   23119    22176    22202 1
   23120    22177    22178 1
   23121    22177    22203 1
   23122    22177    22204 1
   23123    22178    22179 1
   23124    22178    22205 1
   23125    22178    22206 1
   23126    22179    22180 1
   23127    22179    22207 1
   23128    22179    22208 1
   23129    22180    22181 1
   23130    22180    22209 1
   23131    22180    22210 1
   23132    22181    22182 1
   23133    22181    22211 1
   23134    22181    22212 1
   23135    22182    22213 1
   23136    22182    22214 1
   23137    22182    22215 1
   23138    22216    22217 1
   23139    22216    22232 1
   23140    22216    22233 1
   23141    22217    22218 1
   23142    22217    22224 1
   23143    22217    22234 1
   23144    22218    22219 1
   23145    22218    22235 1
   23146    22218    22236 1
   23147    22219    22220 1
   23148    22219    22237 1
   23149    22219    22238 1
   23150    22220    22221 1
   23151    22220    22239 1
   23152    22220    22240 1
   23153    22221    22222 1
   23154    22221    22241 1
   23155    22221    22242 1
   23156    22222    22223 1
   23157    22222    22243 1
   23158    22222    22244 1
   23159    22223    22245 1
   23160    22223    22246 1
   23161    22223    22247 1
   23162    22224    22225 1
   23163    22224    22248 1
   23164    22224    22249 1
   23165    22225    22226 1
   23166    22225    22250 1
   23167    22225    22251 1
   23168    22226    22227 1
   23169    22226    22252 1
   23170    22226    22253 1
   23171    22227    22228 1
   23172    22227    22254 1
   23173    22227    22255 1
   23174    22228    22229 1
   23175    22228    22256 1
   23176    22228    22257 1
   23177    22229    22230 1
   23178    22229    22258 1
   23179    22229    22259 1
   23180    22230    22231 1
   23181    22230    22260 1
   23182    22230    22261 1
   23183    22231    22262 1
   23184    22231    22263 1
   23185    22231    22264 1
   23186    22265    22266 1
   23187    22265    22272 1
   23188    22265    22288 1
   23189    22265    22337 1
   23190    22266    22267 1
   23191    22266    22270 1
   23192    22267    22268 1
   23193    22267    22271 1
   23194    22268    22269 1
   23195    22269    22270 1
   23196    22270    22276 1
   23197    22271    22272 1
   23198    22271    22275 1
   23199    22272    22273 1
   23200    22273    22274 1
   23201    22273    22277 1
   23202    22274    22275 1
   23203    22274    22280 1
   23204    22278    22279 1
   23205    22278    22286 1
   23206    22279    22280 1
   23207    22279    22287 1
   23208    22280    22281 1
   23209    22281    22282 1
   23210    22281    22285 1
   23211    22282    22283 1
   23212    22283    22284 1
   23213    22284    22285 1
   23214    22285    22286 1
   23215    22286    22390 1
   23216    22288    22289 1
   23217    22288    22304 1
   23218    22288    22305 1
   23219    22289    22290 1
   23220    22289    22296 1
   23221    22289    22306 1
   23222    22290    22291 1
   23223    22290    22307 1
   23224    22290    22308 1
   23225    22291    22292 1
   23226    22291    22309 1
   23227    22291    22310 1
   23228    22292    22293 1
   23229    22292    22311 1
   23230    22292    22312 1
   23231    22293    22294 1
   23232    22293    22313 1
   23233    22293    22314 1
   23234    22294    22295 1
   23235    22294    22315 1
   23236    22294    22316 1
   23237    22295    22317 1
   23238    22295    22318 1
   23239    22295    22319 1
   23240    22296    22297 1
   23241    22296    22320 1
   23242    22296    22321 1
   23243    22297    22298 1
   23244    22297    22322 1
   23245    22297    22323 1
   23246    22298    22299 1
   23247    22298    22324 1
   23248    22298    22325 1
   23249    22299    22300 1
   23250    22299    22326 1
   23251    22299    22327 1
   23252    22300    22301 1
   23253    22300    22328 1
   23254    22300    22329 1
   23255    22301    22302 1
   23256    22301    22330 1
   23257    22301    22331 1
   23258    22302    22303 1
   23259    22302    22332 1
   23260    22302    22333 1
   23261    22303    22334 1
   23262    22303    22335 1
   23263    22303    22336 1
   23264    22337    22338 1
   23265    22337    22353 1
   23266    22337    22354 1
   23267    22338    22339 1
   23268    22338    22345 1
   23269    22338    22355 1
   23270    22339    22340 1
   23271    22339    22356 1
   23272    22339    22357 1
   23273    22340    22341 1
   23274    22340    22358 1
   23275    22340    22359 1
   23276    22341    22342 1
   23277    22341    22360 1
   23278    22341    22361 1
   23279    22342    22343 1
   23280    22342    22362 1
   23281    22342    22363 1
   23282    22343    22344 1
   23283    22343    22364 1
   23284    22343    22365 1
   23285    22344    22366 1
   23286    22344    22367 1
   23287    22344    22368 1
   23288    22345    22346 1
   23289    22345    22369 1
   23290    22345    22370 1
   23291    22346    22347 1
   23292    22346    22371 1
   23293    22346    22372 1
   23294    22347    22348 1
   23295    22347    22373 1
   23296    22347    22374 1
   23297    22348    22349 1
   23298    22348    22375 1
   23299    22348    22376 1
   23300    22349    22350 1
   23301    22349    22377 1
   23302    22349    22378 1
   23303    22350    22351 1
   23304    22350    22379 1
   23305    22350    22380 1
   23306    22351    22352 1
   23307    22351    22381 1
   23308    22351    22382 1
   23309    22352    22383 1
   23310    22352    22384 1
   23311    22352    22385 1
   23312    22386    22387 1
   23313    22386    22393 1
   23314    22386    22409 1
   23315    22386    22458 1
   23316    22387    22388 1
   23317    22387    22391 1
   23318    22388    22389 1
   23319    22388    22392 1
   23320    22389    22390 1
   23321    22390    22391 1
   23322    22391    22397 1
   23323    22392    22393 1
   23324    22392    22396 1
   23325    22393    22394 1
   23326    22394    22395 1
   23327    22394    22398 1
   23328    22395    22396 1
   23329    22395    22401 1
   23330    22399    22400 1
   23331    22399    22407 1
   23332    22400    22401 1
   23333    22400    22408 1
   23334    22401    22402 1
   23335    22402    22403 1
   23336    22402    22406 1
   23337    22403    22404 1
   23338    22404    22405 1
   23339    22405    22406 1
   23340    22406    22407 1
   23341    22407    22511 1
   23342    22409    22410 1
   23343    22409    22425 1
   23344    22409    22426 1
   23345    22410    22411 1
   23346    22410    22417 1
   23347    22410    22427 1
   23348    22411    22412 1
   23349    22411    22428 1
   23350    22411    22429 1
   23351    22412    22413 1
   23352    22412    22430 1
   23353    22412    22431 1
   23354    22413    22414 1
   23355    22413    22432 1
   23356    22413    22433 1
   23357    22414    22415 1
   23358    22414    22434 1
   23359    22414    22435 1
   23360    22415    22416 1
   23361    22415    22436 1
   23362    22415    22437 1
   23363    22416    22438 1
   23364    22416    22439 1
   23365    22416    22440 1
   23366    22417    22418 1
   23367    22417    22441 1
   23368    22417    22442 1
   23369    22418    22419 1
   23370    22418    22443 1
   23371    22418    22444 1
   23372    22419    22420 1
   23373    22419    22445 1
   23374    22419    22446 1
   23375    22420    22421 1
   23376    22420    22447 1
   23377    22420    22448 1
   23378    22421    22422 1
   23379    22421    22449 1
   23380    22421    22450 1
   23381    22422    22423 1
   23382    22422    22451 1
   23383    22422    22452 1
   23384    22423    22424 1
   23385    22423    22453 1
   23386    22423    22454 1
   23387    22424    22455 1
   23388    22424    22456 1
   23389    22424    22457 1
   23390    22458    22459 1
   23391    22458    22474 1
   23392    22458    22475 1
   23393    22459    22460 1
   23394    22459    22466 1
   23395    22459    22476 1
   23396    22460    22461 1
   23397    22460    22477 1
   23398    22460    22478 1
   23399    22461    22462 1
   23400    22461    22479 1
   23401    22461    22480 1
   23402    22462    22463 1
   23403    22462    22481 1
   23404    22462    22482 1
   23405    22463    22464 1
   23406    22463    22483 1
   23407    22463    22484 1
   23408    22464    22465 1
   23409    22464    22485 1
   23410    22464    22486 1
   23411    22465    22487 1
   23412    22465    22488 1
   23413    22465    22489 1
   23414    22466    22467 1
   23415    22466    22490 1
   23416    22466    22491 1
   23417    22467    22468 1
   23418    22467    22492 1
   23419    22467    22493 1
   23420    22468    22469 1
   23421    22468    22494 1
   23422    22468    22495 1
   23423    22469    22470 1
   23424    22469    22496 1
   23425    22469    22497 1
   23426    22470    22471 1
   23427    22470    22498 1
   23428    22470    22499 1
   23429    22471    22472 1
   23430    22471    22500 1
   23431    22471    22501 1
   23432    22472    22473 1
   23433    22472    22502 1
   23434    22472    22503 1
   23435    22473    22504 1
   23436    22473    22505 1
   23437    22473    22506 1
   23438    22507    22508 1
   23439    22507    22514 1
   23440    22507    22530 1
   23441    22507    22579 1
   23442    22508    22509 1
   23443    22508    22512 1
   23444    22509    22510 1
   23445    22509    22513 1
   23446    22510    22511 1
   23447    22511    22512 1
   23448    22512    22518 1
   23449    22513    22514 1
   23450    22513    22517 1
   23451    22514    22515 1
   23452    22515    22516 1
   23453    22515    22519 1
   23454    22516    22517 1
   23455    22516    22522 1
   23456    22520    22521 1
   23457    22520    22528 1
   23458    22521    22522 1
   23459    22521    22529 1
   23460    22522    22523 1
   23461    22523    22524 1
   23462    22523    22527 1
   23463    22524    22525 1
   23464    22525    22526 1
   23465    22526    22527 1
   23466    22527    22528 1
   23467    22528    22632 1
   23468    22530    22531 1
   23469    22530    22546 1
   23470    22530    22547 1
   23471    22531    22532 1
   23472    22531    22538 1
   23473    22531    22548 1
   23474    22532    22533 1
   23475    22532    22549 1
   23476    22532    22550 1
   23477    22533    22534 1
   23478    22533    22551 1
   23479    22533    22552 1
   23480    22534    22535 1
   23481    22534    22553 1
   23482    22534    22554 1
   23483    22535    22536 1
   23484    22535    22555 1
   23485    22535    22556 1
   23486    22536    22537 1
   23487    22536    22557 1
   23488    22536    22558 1
   23489    22537    22559 1
   23490    22537    22560 1
   23491    22537    22561 1
   23492    22538    22539 1
   23493    22538    22562 1
   23494    22538    22563 1
   23495    22539    22540 1
   23496    22539    22564 1
   23497    22539    22565 1
   23498    22540    22541 1
   23499    22540    22566 1
   23500    22540    22567 1
   23501    22541    22542 1
   23502    22541    22568 1
   23503    22541    22569 1
   23504    22542    22543 1
   23505    22542    22570 1
   23506    22542    22571 1
   23507    22543    22544 1
   23508    22543    22572 1
   23509    22543    22573 1
   23510    22544    22545 1
   23511    22544    22574 1
   23512    22544    22575 1
   23513    22545    22576 1
   23514    22545    22577 1
   23515    22545    22578 1
   23516    22579    22580 1
   23517    22579    22595 1
   23518    22579    22596 1
   23519    22580    22581 1
   23520    22580    22587 1
   23521    22580    22597 1
   23522    22581    22582 1
   23523    22581    22598 1
   23524    22581    22599 1
   23525    22582    22583 1
   23526    22582    22600 1
   23527    22582    22601 1
   23528    22583    22584 1
   23529    22583    22602 1
   23530    22583    22603 1
   23531    22584    22585 1
   23532    22584    22604 1
   23533    22584    22605 1
   23534    22585    22586 1
   23535    22585    22606 1
   23536    22585    22607 1
   23537    22586    22608 1
   23538    22586    22609 1
   23539    22586    22610 1
   23540    22587    22588 1
   23541    22587    22611 1
   23542    22587    22612 1
   23543    22588    22589 1
   23544    22588    22613 1
   23545    22588    22614 1
   23546    22589    22590 1
   23547    22589    22615 1
   23548    22589    22616 1
   23549    22590    22591 1
   23550    22590    22617 1
   23551    22590    22618 1
   23552    22591    22592 1
   23553    22591    22619 1
   23554    22591    22620 1
   23555    22592    22593 1
   23556    22592    22621 1
   23557    22592    22622 1
   23558    22593    22594 1
   23559    22593    22623 1
   23560    22593    22624 1
   23561    22594    22625 1
   23562    22594    22626 1
   23563    22594    22627 1
   23564    22628    22629 1
   23565    22628    22635 1
   23566    22628    22651 1
   23567    22628    22700 1
   23568    22629    22630 1
   23569    22629    22633 1
   23570    22630    22631 1
   23571    22630    22634 1
   23572    22631    22632 1
   23573    22632    22633 1
   23574    22633    22639 1
   23575    22634    22635 1
   23576    22634    22638 1
   23577    22635    22636 1
   23578    22636    22637 1
   23579    22636    22640 1
   23580    22637    22638 1
   23581    22637    22643 1
   23582    22641    22642 1
   23583    22641    22649 1
   23584    22642    22643 1
   23585    22642    22650 1
   23586    22643    22644 1
   23587    22644    22645 1
   23588    22644    22648 1
   23589    22645    22646 1
   23590    22646    22647 1
   23591    22647    22648 1
   23592    22648    22649 1
   23593    22649    22753 1
   23594    22651    22652 1
   23595    22651    22667 1
   23596    22651    22668 1
   23597    22652    22653 1
   23598    22652    22659 1
   23599    22652    22669 1
   23600    22653    22654 1
   23601    22653    22670 1
   23602    22653    22671 1
   23603    22654    22655 1
   23604    22654    22672 1
   23605    22654    22673 1
   23606    22655    22656 1
   23607    22655    22674 1
   23608    22655    22675 1
   23609    22656    22657 1
   23610    22656    22676 1
   23611    22656    22677 1
   23612    22657    22658 1
   23613    22657    22678 1
   23614    22657    22679 1
   23615    22658    22680 1
   23616    22658    22681 1
   23617    22658    22682 1
   23618    22659    22660 1
   23619    22659    22683 1
   23620    22659    22684 1
   23621    22660    22661 1
   23622    22660    22685 1
   23623    22660    22686 1
   23624    22661    22662 1
   23625    22661    22687 1
   23626    22661    22688 1
   23627    22662    22663 1
   23628    22662    22689 1
   23629    22662    22690 1
   23630    22663    22664 1
   23631    22663    22691 1
   23632    22663    22692 1
   23633    22664    22665 1
   23634    22664    22693 1
   23635    22664    22694 1
   23636    22665    22666 1
   23637    22665    22695 1
   23638    22665    22696 1
   23639    22666    22697 1
   23640    22666    22698 1
   23641    22666    22699 1
   23642    22700    22701 1
   23643    22700    22716 1
   23644    22700    22717 1
   23645    22701    22702 1
   23646    22701    22708 1
   23647    22701    22718 1
   23648    22702    22703 1
   23649    22702    22719 1
   23650    22702    22720 1
   23651    22703    22704 1
   23652    22703    22721 1
   23653    22703    22722 1
   23654    22704    22705 1
   23655    22704    22723 1
   23656    22704    22724 1
   23657    22705    22706 1
   23658    22705    22725 1
   23659    22705    22726 1
   23660    22706    22707 1
   23661    22706    22727 1
   23662    22706    22728 1
   23663    22707    22729 1
   23664    22707    22730 1
   23665    22707    22731 1
   23666    22708    22709 1
   23667    22708    22732 1
   23668    22708    22733 1
   23669    22709    22710 1
   23670    22709    22734 1
   23671    22709    22735 1
   23672    22710    22711 1
   23673    22710    22736 1
   23674    22710    22737 1
   23675    22711    22712 1
   23676    22711    22738 1
   23677    22711    22739 1
   23678    22712    22713 1
   23679    22712    22740 1
   23680    22712    22741 1
   23681    22713    22714 1
   23682    22713    22742 1
   23683    22713    22743 1
   23684    22714    22715 1
   23685    22714    22744 1
   23686    22714    22745 1
   23687    22715    22746 1
   23688    22715    22747 1
   23689    22715    22748 1
   23690    22749    22750 1
   23691    22749    22756 1
   23692    22749    22772 1
   23693    22749    22821 1
   23694    22750    22751 1
   23695    22750    22754 1
   23696    22751    22752 1
   23697    22751    22755 1
   23698    22752    22753 1
   23699    22753    22754 1
   23700    22754    22760 1
   23701    22755    22756 1
   23702    22755    22759 1
   23703    22756    22757 1
   23704    22757    22758 1
   23705    22757    22761 1
   23706    22758    22759 1
   23707    22758    22764 1
   23708    22762    22763 1
   23709    22762    22770 1
   23710    22763    22764 1
   23711    22763    22771 1
   23712    22764    22765 1
   23713    22765    22766 1
   23714    22765    22769 1
   23715    22766    22767 1
   23716    22767    22768 1
   23717    22768    22769 1
   23718    22769    22770 1
   23719    22770    22874 1
   23720    22772    22773 1
   23721    22772    22788 1
   23722    22772    22789 1
   23723    22773    22774 1
   23724    22773    22780 1
   23725    22773    22790 1
   23726    22774    22775 1
   23727    22774    22791 1
   23728    22774    22792 1
   23729    22775    22776 1
   23730    22775    22793 1
   23731    22775    22794 1
   23732    22776    22777 1
   23733    22776    22795 1
   23734    22776    22796 1
   23735    22777    22778 1
   23736    22777    22797 1
   23737    22777    22798 1
   23738    22778    22779 1
   23739    22778    22799 1
   23740    22778    22800 1
   23741    22779    22801 1
   23742    22779    22802 1
   23743    22779    22803 1
   23744    22780    22781 1
   23745    22780    22804 1
   23746    22780    22805 1
   23747    22781    22782 1
   23748    22781    22806 1
   23749    22781    22807 1
   23750    22782    22783 1
   23751    22782    22808 1
   23752    22782    22809 1
   23753    22783    22784 1
   23754    22783    22810 1
   23755    22783    22811 1
   23756    22784    22785 1
   23757    22784    22812 1
   23758    22784    22813 1
   23759    22785    22786 1
   23760    22785    22814 1
   23761    22785    22815 1
   23762    22786    22787 1
   23763    22786    22816 1
   23764    22786    22817 1
   23765    22787    22818 1
   23766    22787    22819 1
   23767    22787    22820 1
   23768    22821    22822 1
   23769    22821    22837 1
   23770    22821    22838 1
   23771    22822    22823 1
   23772    22822    22829 1
   23773    22822    22839 1
   23774    22823    22824 1
   23775    22823    22840 1
   23776    22823    22841 1
   23777    22824    22825 1
   23778    22824    22842 1
   23779    22824    22843 1
   23780    22825    22826 1
   23781    22825    22844 1
   23782    22825    22845 1
   23783    22826    22827 1
   23784    22826    22846 1
   23785    22826    22847 1
   23786    22827    22828 1
   23787    22827    22848 1
   23788    22827    22849 1
   23789    22828    22850 1
   23790    22828    22851 1
   23791    22828    22852 1
   23792    22829    22830 1
   23793    22829    22853 1
   23794    22829    22854 1
   23795    22830    22831 1
   23796    22830    22855 1
   23797    22830    22856 1
   23798    22831    22832 1
   23799    22831    22857 1
   23800    22831    22858 1
   23801    22832    22833 1
   23802    22832    22859 1
   23803    22832    22860 1
   23804    22833    22834 1
   23805    22833    22861 1
   23806    22833    22862 1
   23807    22834    22835 1
   23808    22834    22863 1
   23809    22834    22864 1
   23810    22835    22836 1
   23811    22835    22865 1
   23812    22835    22866 1
   23813    22836    22867 1
   23814    22836    22868 1
   23815    22836    22869 1
   23816    22870    22871 1
   23817    22870    22877 1
   23818    22870    22893 1
   23819    22870    22942 1
   23820    22871    22872 1
   23821    22871    22875 1
   23822    22872    22873 1
   23823    22872    22876 1
   23824    22873    22874 1
   23825    22874    22875 1
   23826    22875    22881 1
   23827    22876    22877 1
   23828    22876    22880 1
   23829    22877    22878 1
   23830    22878    22879 1
   23831    22878    22882 1
   23832    22879    22880 1
   23833    22879    22885 1
   23834    22883    22884 1
   23835    22883    22891 1
   23836    22884    22885 1
   23837    22884    22892 1
   23838    22885    22886 1
   23839    22886    22887 1
   23840    22886    22890 1
   23841    22887    22888 1
   23842    22888    22889 1
   23843    22889    22890 1
   23844    22890    22891 1
   23845    22891    22995 1
   23846    22893    22894 1
   23847    22893    22909 1
   23848    22893    22910 1
   23849    22894    22895 1
   23850    22894    22901 1
   23851    22894    22911 1
   23852    22895    22896 1
   23853    22895    22912 1
   23854    22895    22913 1
   23855    22896    22897 1
   23856    22896    22914 1
   23857    22896    22915 1
   23858    22897    22898 1
   23859    22897    22916 1
   23860    22897    22917 1
   23861    22898    22899 1
   23862    22898    22918 1
   23863    22898    22919 1
   23864    22899    22900 1
   23865    22899    22920 1
   23866    22899    22921 1
   23867    22900    22922 1
   23868    22900    22923 1
   23869    22900    22924 1
   23870    22901    22902 1
   23871    22901    22925 1
   23872    22901    22926 1
   23873    22902    22903 1
   23874    22902    22927 1
   23875    22902    22928 1
   23876    22903    22904 1
   23877    22903    22929 1
   23878    22903    22930 1
   23879    22904    22905 1
   23880    22904    22931 1
   23881    22904    22932 1
   23882    22905    22906 1
   23883    22905    22933 1
   23884    22905    22934 1
   23885    22906    22907 1
   23886    22906    22935 1
   23887    22906    22936 1
   23888    22907    22908 1
   23889    22907    22937 1
   23890    22907    22938 1
   23891    22908    22939 1
   23892    22908    22940 1
   23893    22908    22941 1
   23894    22942    22943 1
   23895    22942    22958 1
   23896    22942    22959 1
   23897    22943    22944 1
   23898    22943    22950 1
   23899    22943    22960 1
   23900    22944    22945 1
   23901    22944    22961 1
   23902    22944    22962 1
   23903    22945    22946 1
   23904    22945    22963 1
   23905    22945    22964 1
   23906    22946    22947 1
   23907    22946    22965 1
   23908    22946    22966 1
   23909    22947    22948 1
   23910    22947    22967 1
   23911    22947    22968 1
   23912    22948    22949 1
   23913    22948    22969 1
   23914    22948    22970 1
   23915    22949    22971 1
   23916    22949    22972 1
   23917    22949    22973 1
   23918    22950    22951 1
   23919    22950    22974 1
   23920    22950    22975 1
   23921    22951    22952 1
   23922    22951    22976 1
   23923    22951    22977 1
   23924    22952    22953 1
   23925    22952    22978 1
   23926    22952    22979 1
   23927    22953    22954 1
   23928    22953    22980 1
   23929    22953    22981 1
   23930    22954    22955 1
   23931    22954    22982 1
   23932    22954    22983 1
   23933    22955    22956 1
   23934    22955    22984 1
   23935    22955    22985 1
   23936    22956    22957 1
   23937    22956    22986 1
   23938    22956    22987 1
   23939    22957    22988 1
   23940    22957    22989 1
   23941    22957    22990 1
   23942    22991    22992 1
   23943    22991    22998 1
   23944    22991    23014 1
   23945    22991    23063 1
   23946    22992    22993 1
   23947    22992    22996 1
   23948    22993    22994 1
   23949    22993    22997 1
   23950    22994    22995 1
   23951    22995    22996 1
   23952    22996    23002 1
   23953    22997    22998 1
   23954    22997    23001 1
   23955    22998    22999 1
   23956    22999    23000 1
   23957    22999    23003 1
   23958    23000    23001 1
   23959    23000    23006 1
   23960    23004    23005 1
   23961    23004    23012 1
   23962    23005    23006 1
   23963    23005    23013 1
   23964    23006    23007 1
   23965    23007    23008 1
   23966    23007    23011 1
   23967    23008    23009 1
   23968    23009    23010 1
   23969    23010    23011 1
   23970    23011    23012 1
   23971    23012    23116 1
   23972    23014    23015 1
   23973    23014    23030 1
   23974    23014    23031 1
   23975    23015    23016 1
   23976    23015    23022 1
   23977    23015    23032 1
   23978    23016    23017 1
   23979    23016    23033 1
   23980    23016    23034 1
   23981    23017    23018 1
   23982    23017    23035 1
   23983    23017    23036 1
   23984    23018    23019 1
   23985    23018    23037 1
   23986    23018    23038 1
   23987    23019    23020 1
   23988    23019    23039 1
   23989    23019    23040 1
   23990    23020    23021 1
   23991    23020    23041 1
   23992    23020    23042 1
   23993    23021    23043 1
   23994    23021    23044 1
   23995    23021    23045 1
   23996    23022    23023 1
   23997    23022    23046 1
   23998    23022    23047 1
   23999    23023    23024 1
   24000    23023    23048 1
   24001    23023    23049 1
   24002    23024    23025 1
   24003    23024    23050 1
   24004    23024    23051 1
   24005    23025    23026 1
   24006    23025    23052 1
   24007    23025    23053 1
   24008    23026    23027 1
   24009    23026    23054 1
   24010    23026    23055 1
   24011    23027    23028 1
   24012    23027    23056 1
   24013    23027    23057 1
   24014    23028    23029 1
   24015    23028    23058 1
   24016    23028    23059 1
   24017    23029    23060 1
   24018    23029    23061 1
   24019    23029    23062 1
   24020    23063    23064 1
   24021    23063    23079 1
   24022    23063    23080 1
   24023    23064    23065 1
   24024    23064    23071 1
   24025    23064    23081 1
   24026    23065    23066 1
   24027    23065    23082 1
   24028    23065    23083 1
   24029    23066    23067 1
   24030    23066    23084 1
   24031    23066    23085 1
   24032    23067    23068 1
   24033    23067    23086 1
   24034    23067    23087 1
   24035    23068    23069 1
   24036    23068    23088 1
   24037    23068    23089 1
   24038    23069    23070 1
   24039    23069    23090 1
   24040    23069    23091 1
   24041    23070    23092 1
   24042    23070    23093 1
   24043    23070    23094 1
   24044    23071    23072 1
   24045    23071    23095 1
   24046    23071    23096 1
   24047    23072    23073 1
   24048    23072    23097 1
   24049    23072    23098 1
   24050    23073    23074 1
   24051    23073    23099 1
   24052    23073    23100 1
   24053    23074    23075 1
   24054    23074    23101 1
   24055    23074    23102 1
   24056    23075    23076 1
   24057    23075    23103 1
   24058    23075    23104 1
   24059    23076    23077 1
   24060    23076    23105 1
   24061    23076    23106 1
   24062    23077    23078 1
   24063    23077    23107 1
   24064    23077    23108 1
   24065    23078    23109 1
   24066    23078    23110 1
   24067    23078    23111 1
   24068    23112    23113 1
   24069    23112    23119 1
   24070    23112    23135 1
   24071    23112    23184 1
   24072    23113    23114 1
   24073    23113    23117 1
   24074    23114    23115 1
   24075    23114    23118 1
   24076    23115    23116 1
   24077    23116    23117 1
   24078    23117    23123 1
   24079    23118    23119 1
   24080    23118    23122 1
   24081    23119    23120 1
   24082    23120    23121 1
   24083    23120    23124 1
   24084    23121    23122 1
   24085    23121    23127 1
   24086    23125    23126 1
   24087    23125    23133 1
   24088    23126    23127 1
   24089    23126    23134 1
   24090    23127    23128 1
   24091    23128    23129 1
   24092    23128    23132 1
   24093    23129    23130 1
   24094    23130    23131 1
   24095    23131    23132 1
   24096    23132    23133 1
   24097    23133    23237 1
   24098    23135    23136 1
   24099    23135    23151 1
   24100    23135    23152 1
   24101    23136    23137 1
   24102    23136    23143 1
   24103    23136    23153 1
   24104    23137    23138 1
   24105    23137    23154 1
   24106    23137    23155 1
   24107    23138    23139 1
   24108    23138    23156 1
   24109    23138    23157 1
   24110    23139    23140 1
   24111    23139    23158 1
   24112    23139    23159 1
   24113    23140    23141 1
   24114    23140    23160 1
   24115    23140    23161 1
   24116    23141    23142 1
   24117    23141    23162 1
   24118    23141    23163 1
   24119    23142    23164 1
   24120    23142    23165 1
   24121    23142    23166 1
   24122    23143    23144 1
   24123    23143    23167 1
   24124    23143    23168 1
   24125    23144    23145 1
   24126    23144    23169 1
   24127    23144    23170 1
   24128    23145    23146 1
   24129    23145    23171 1
   24130    23145    23172 1
   24131    23146    23147 1
   24132    23146    23173 1
   24133    23146    23174 1
   24134    23147    23148 1
   24135    23147    23175 1
   24136    23147    23176 1
   24137    23148    23149 1
   24138    23148    23177 1
   24139    23148    23178 1
   24140    23149    23150 1
   24141    23149    23179 1
   24142    23149    23180 1
   24143    23150    23181 1
   24144    23150    23182 1
   24145    23150    23183 1
   24146    23184    23185 1
   24147    23184    23200 1
   24148    23184    23201 1
   24149    23185    23186 1
   24150    23185    23192 1
   24151    23185    23202 1
   24152    23186    23187 1
   24153    23186    23203 1
   24154    23186    23204 1
   24155    23187    23188 1
   24156    23187    23205 1
   24157    23187    23206 1
   24158    23188    23189 1
   24159    23188    23207 1
   24160    23188    23208 1
   24161    23189    23190 1
   24162    23189    23209 1
   24163    23189    23210 1
   24164    23190    23191 1
   24165    23190    23211 1
   24166    23190    23212 1
   24167    23191    23213 1
   24168    23191    23214 1
   24169    23191    23215 1
   24170    23192    23193 1
   24171    23192    23216 1
   24172    23192    23217 1
   24173    23193    23194 1
   24174    23193    23218 1
   24175    23193    23219 1
   24176    23194    23195 1
   24177    23194    23220 1
   24178    23194    23221 1
   24179    23195    23196 1
   24180    23195    23222 1
   24181    23195    23223 1
   24182    23196    23197 1
   24183    23196    23224 1
   24184    23196    23225 1
   24185    23197    23198 1
   24186    23197    23226 1
   24187    23197    23227 1
   24188    23198    23199 1
   24189    23198    23228 1
   24190    23198    23229 1
   24191    23199    23230 1
   24192    23199    23231 1
   24193    23199    23232 1
   24194    23233    23234 1
   24195    23233    23240 1
   24196    23233    23256 1
   24197    23233    23305 1
   24198    23234    23235 1
   24199    23234    23238 1
   24200    23235    23236 1
   24201    23235    23239 1
   24202    23236    23237 1
   24203    23237    23238 1
   24204    23238    23244 1
   24205    23239    23240 1
   24206    23239    23243 1
   24207    23240    23241 1
   24208    23241    23242 1
   24209    23241    23245 1
   24210    23242    23243 1
   24211    23242    23248 1
   24212    23246    23247 1
   24213    23246    23254 1
   24214    23247    23248 1
   24215    23247    23255 1
   24216    23248    23249 1
   24217    23249    23250 1
   24218    23249    23253 1
   24219    23250    23251 1
   24220    23251    23252 1
   24221    23252    23253 1
   24222    23253    23254 1
   24223    23254    23358 1
   24224    23256    23257 1
   24225    23256    23272 1
   24226    23256    23273 1
   24227    23257    23258 1
   24228    23257    23264 1
   24229    23257    23274 1
   24230    23258    23259 1
   24231    23258    23275 1
   24232    23258    23276 1
   24233    23259    23260 1
   24234    23259    23277 1
   24235    23259    23278 1
   24236    23260    23261 1
   24237    23260    23279 1
   24238    23260    23280 1
   24239    23261    23262 1
   24240    23261    23281 1
   24241    23261    23282 1
   24242    23262    23263 1
   24243    23262    23283 1
   24244    23262    23284 1
   24245    23263    23285 1
   24246    23263    23286 1
   24247    23263    23287 1
   24248    23264    23265 1
   24249    23264    23288 1
   24250    23264    23289 1
   24251    23265    23266 1
   24252    23265    23290 1
   24253    23265    23291 1
   24254    23266    23267 1
   24255    23266    23292 1
   24256    23266    23293 1
   24257    23267    23268 1
   24258    23267    23294 1
   24259    23267    23295 1
   24260    23268    23269 1
   24261    23268    23296 1
   24262    23268    23297 1
   24263    23269    23270 1
   24264    23269    23298 1
   24265    23269    23299 1
   24266    23270    23271 1
   24267    23270    23300 1
   24268    23270    23301 1
   24269    23271    23302 1
   24270    23271    23303 1
   24271    23271    23304 1
   24272    23305    23306 1
   24273    23305    23321 1
   24274    23305    23322 1
   24275    23306    23307 1
   24276    23306    23313 1
   24277    23306    23323 1
   24278    23307    23308 1
   24279    23307    23324 1
   24280    23307    23325 1
   24281    23308    23309 1
   24282    23308    23326 1
   24283    23308    23327 1
   24284    23309    23310 1
   24285    23309    23328 1
   24286    23309    23329 1
   24287    23310    23311 1
   24288    23310    23330 1
   24289    23310    23331 1
   24290    23311    23312 1
   24291    23311    23332 1
   24292    23311    23333 1
   24293    23312    23334 1
   24294    23312    23335 1
   24295    23312    23336 1
   24296    23313    23314 1
   24297    23313    23337 1
   24298    23313    23338 1
   24299    23314    23315 1
   24300    23314    23339 1
   24301    23314    23340 1
   24302    23315    23316 1
   24303    23315    23341 1
   24304    23315    23342 1
   24305    23316    23317 1
   24306    23316    23343 1
   24307    23316    23344 1
   24308    23317    23318 1
   24309    23317    23345 1
   24310    23317    23346 1
   24311    23318    23319 1
   24312    23318    23347 1
   24313    23318    23348 1
   24314    23319    23320 1
   24315    23319    23349 1
   24316    23319    23350 1
   24317    23320    23351 1
   24318    23320    23352 1
   24319    23320    23353 1
   24320    23354    23355 1
   24321    23354    23361 1
   24322    23354    23377 1
   24323    23354    23426 1
   24324    23355    23356 1
   24325    23355    23359 1
   24326    23356    23357 1
   24327    23356    23360 1
   24328    23357    23358 1
   24329    23358    23359 1
   24330    23359    23365 1
   24331    23360    23361 1
   24332    23360    23364 1
   24333    23361    23362 1
   24334    23362    23363 1
   24335    23362    23366 1
   24336    23363    23364 1
   24337    23363    23369 1
   24338    23367    23368 1
   24339    23367    23375 1
   24340    23368    23369 1
   24341    23368    23376 1
   24342    23369    23370 1
   24343    23370    23371 1
   24344    23370    23374 1
   24345    23371    23372 1
   24346    23372    23373 1
   24347    23373    23374 1
   24348    23374    23375 1
   24349    23375    23479 1
   24350    23377    23378 1
   24351    23377    23393 1
   24352    23377    23394 1
   24353    23378    23379 1
   24354    23378    23385 1
   24355    23378    23395 1
   24356    23379    23380 1
   24357    23379    23396 1
   24358    23379    23397 1
   24359    23380    23381 1
   24360    23380    23398 1
   24361    23380    23399 1
   24362    23381    23382 1
   24363    23381    23400 1
   24364    23381    23401 1
   24365    23382    23383 1
   24366    23382    23402 1
   24367    23382    23403 1
   24368    23383    23384 1
   24369    23383    23404 1
   24370    23383    23405 1
   24371    23384    23406 1
   24372    23384    23407 1
   24373    23384    23408 1
   24374    23385    23386 1
   24375    23385    23409 1
   24376    23385    23410 1
   24377    23386    23387 1
   24378    23386    23411 1
   24379    23386    23412 1
   24380    23387    23388 1
   24381    23387    23413 1
   24382    23387    23414 1
   24383    23388    23389 1
   24384    23388    23415 1
   24385    23388    23416 1
   24386    23389    23390 1
   24387    23389    23417 1
   24388    23389    23418 1
   24389    23390    23391 1
   24390    23390    23419 1
   24391    23390    23420 1
   24392    23391    23392 1
   24393    23391    23421 1
   24394    23391    23422 1
   24395    23392    23423 1
   24396    23392    23424 1
   24397    23392    23425 1
   24398    23426    23427 1
   24399    23426    23442 1
   24400    23426    23443 1
   24401    23427    23428 1
   24402    23427    23434 1
   24403    23427    23444 1
   24404    23428    23429 1
   24405    23428    23445 1
   24406    23428    23446 1
   24407    23429    23430 1
   24408    23429    23447 1
   24409    23429    23448 1
   24410    23430    23431 1
   24411    23430    23449 1
   24412    23430    23450 1
   24413    23431    23432 1
   24414    23431    23451 1
   24415    23431    23452 1
   24416    23432    23433 1
   24417    23432    23453 1
   24418    23432    23454 1
   24419    23433    23455 1
   24420    23433    23456 1
   24421    23433    23457 1
   24422    23434    23435 1
   24423    23434    23458 1
   24424    23434    23459 1
   24425    23435    23436 1
   24426    23435    23460 1
   24427    23435    23461 1
   24428    23436    23437 1
   24429    23436    23462 1
   24430    23436    23463 1
   24431    23437    23438 1
   24432    23437    23464 1
   24433    23437    23465 1
   24434    23438    23439 1
   24435    23438    23466 1
   24436    23438    23467 1
   24437    23439    23440 1
   24438    23439    23468 1
   24439    23439    23469 1
   24440    23440    23441 1
   24441    23440    23470 1
   24442    23440    23471 1
   24443    23441    23472 1
   24444    23441    23473 1
   24445    23441    23474 1
   24446    23475    23476 1
   24447    23475    23482 1
   24448    23475    23498 1
   24449    23475    23547 1
   24450    23476    23477 1
   24451    23476    23480 1
   24452    23477    23478 1
   24453    23477    23481 1
   24454    23478    23479 1
   24455    23479    23480 1
   24456    23480    23486 1
   24457    23481    23482 1
   24458    23481    23485 1
   24459    23482    23483 1
   24460    23483    23484 1
   24461    23483    23487 1
   24462    23484    23485 1
   24463    23484    23490 1
   24464    23488    23489 1
   24465    23488    23496 1
   24466    23489    23490 1
   24467    23489    23497 1
   24468    23490    23491 1
   24469    23491    23492 1
   24470    23491    23495 1
   24471    23492    23493 1
   24472    23493    23494 1
   24473    23494    23495 1
   24474    23495    23496 1
   24475    23496    23600 1
   24476    23498    23499 1
   24477    23498    23514 1
   24478    23498    23515 1
   24479    23499    23500 1
   24480    23499    23506 1
   24481    23499    23516 1
   24482    23500    23501 1
   24483    23500    23517 1
   24484    23500    23518 1
   24485    23501    23502 1
   24486    23501    23519 1
   24487    23501    23520 1
   24488    23502    23503 1
   24489    23502    23521 1
   24490    23502    23522 1
   24491    23503    23504 1
   24492    23503    23523 1
   24493    23503    23524 1
   24494    23504    23505 1
   24495    23504    23525 1
   24496    23504    23526 1
   24497    23505    23527 1
   24498    23505    23528 1
   24499    23505    23529 1
   24500    23506    23507 1
   24501    23506    23530 1
   24502    23506    23531 1
   24503    23507    23508 1
   24504    23507    23532 1
   24505    23507    23533 1
   24506    23508    23509 1
   24507    23508    23534 1
   24508    23508    23535 1
   24509    23509    23510 1
   24510    23509    23536 1
   24511    23509    23537 1
   24512    23510    23511 1
   24513    23510    23538 1
   24514    23510    23539 1
   24515    23511    23512 1
   24516    23511    23540 1
   24517    23511    23541 1
   24518    23512    23513 1
   24519    23512    23542 1
   24520    23512    23543 1
   24521    23513    23544 1
   24522    23513    23545 1
   24523    23513    23546 1
   24524    23547    23548 1
   24525    23547    23563 1
   24526    23547    23564 1
   24527    23548    23549 1
   24528    23548    23555 1
   24529    23548    23565 1
   24530    23549    23550 1
   24531    23549    23566 1
   24532    23549    23567 1
   24533    23550    23551 1
   24534    23550    23568 1
   24535    23550    23569 1
   24536    23551    23552 1
   24537    23551    23570 1
   24538    23551    23571 1
   24539    23552    23553 1
   24540    23552    23572 1
   24541    23552    23573 1
   24542    23553    23554 1
   24543    23553    23574 1
   24544    23553    23575 1
   24545    23554    23576 1
   24546    23554    23577 1
   24547    23554    23578 1
   24548    23555    23556 1
   24549    23555    23579 1
   24550    23555    23580 1
   24551    23556    23557 1
   24552    23556    23581 1
   24553    23556    23582 1
   24554    23557    23558 1
   24555    23557    23583 1
   24556    23557    23584 1
   24557    23558    23559 1
   24558    23558    23585 1
   24559    23558    23586 1
   24560    23559    23560 1
   24561    23559    23587 1
   24562    23559    23588 1
   24563    23560    23561 1
   24564    23560    23589 1
   24565    23560    23590 1
   24566    23561    23562 1
   24567    23561    23591 1
   24568    23561    23592 1
   24569    23562    23593 1
   24570    23562    23594 1
   24571    23562    23595 1
   24572    23596    23597 1
   24573    23596    23603 1
   24574    23596    23619 1
   24575    23596    23668 1
   24576    23597    23598 1
   24577    23597    23601 1
   24578    23598    23599 1
   24579    23598    23602 1
   24580    23599    23600 1
   24581    23600    23601 1
   24582    23601    23607 1
   24583    23602    23603 1
   24584    23602    23606 1
   24585    23603    23604 1
   24586    23604    23605 1
   24587    23604    23608 1
   24588    23605    23606 1
   24589    23605    23611 1
   24590    23609    23610 1
   24591    23609    23617 1
   24592    23610    23611 1
   24593    23610    23618 1
   24594    23611    23612 1
   24595    23612    23613 1
   24596    23612    23616 1
   24597    23613    23614 1
   24598    23614    23615 1
   24599    23615    23616 1
   24600    23616    23617 1
   24601    23617    23721 1
   24602    23619    23620 1
   24603    23619    23635 1
   24604    23619    23636 1
   24605    23620    23621 1
   24606    23620    23627 1
   24607    23620    23637 1
   24608    23621    23622 1
   24609    23621    23638 1
   24610    23621    23639 1
   24611    23622    23623 1
   24612    23622    23640 1
   24613    23622    23641 1
   24614    23623    23624 1
   24615    23623    23642 1
   24616    23623    23643 1
   24617    23624    23625 1
   24618    23624    23644 1
   24619    23624    23645 1
   24620    23625    23626 1
   24621    23625    23646 1
   24622    23625    23647 1
   24623    23626    23648 1
   24624    23626    23649 1
   24625    23626    23650 1
   24626    23627    23628 1
   24627    23627    23651 1
   24628    23627    23652 1
   24629    23628    23629 1
   24630    23628    23653 1
   24631    23628    23654 1
   24632    23629    23630 1
   24633    23629    23655 1
   24634    23629    23656 1
   24635    23630    23631 1
   24636    23630    23657 1
   24637    23630    23658 1
   24638    23631    23632 1
   24639    23631    23659 1
   24640    23631    23660 1
   24641    23632    23633 1
   24642    23632    23661 1
   24643    23632    23662 1
   24644    23633    23634 1
   24645    23633    23663 1
   24646    23633    23664 1
   24647    23634    23665 1
   24648    23634    23666 1
   24649    23634    23667 1
   24650    23668    23669 1
   24651    23668    23684 1
   24652    23668    23685 1
   24653    23669    23670 1
   24654    23669    23676 1
   24655    23669    23686 1
   24656    23670    23671 1
   24657    23670    23687 1
   24658    23670    23688 1
   24659    23671    23672 1
   24660    23671    23689 1
   24661    23671    23690 1
   24662    23672    23673 1
   24663    23672    23691 1
   24664    23672    23692 1
   24665    23673    23674 1
   24666    23673    23693 1
   24667    23673    23694 1
   24668    23674    23675 1
   24669    23674    23695 1
   24670    23674    23696 1
   24671    23675    23697 1
   24672    23675    23698 1
   24673    23675    23699 1
   24674    23676    23677 1
   24675    23676    23700 1
   24676    23676    23701 1
   24677    23677    23678 1
   24678    23677    23702 1
   24679    23677    23703 1
   24680    23678    23679 1
   24681    23678    23704 1
   24682    23678    23705 1
   24683    23679    23680 1
   24684    23679    23706 1
   24685    23679    23707 1
   24686    23680    23681 1
   24687    23680    23708 1
   24688    23680    23709 1
   24689    23681    23682 1
   24690    23681    23710 1
   24691    23681    23711 1
   24692    23682    23683 1
   24693    23682    23712 1
   24694    23682    23713 1
   24695    23683    23714 1
   24696    23683    23715 1
   24697    23683    23716 1
   24698    23717    23718 1
   24699    23717    23724 1
   24700    23717    23740 1
   24701    23717    23789 1
   24702    23718    23719 1
   24703    23718    23722 1
   24704    23719    23720 1
   24705    23719    23723 1
   24706    23720    23721 1
   24707    23721    23722 1
   24708    23722    23728 1
   24709    23723    23724 1
   24710    23723    23727 1
   24711    23724    23725 1
   24712    23725    23726 1
   24713    23725    23729 1
   24714    23726    23727 1
   24715    23726    23732 1
   24716    23730    23731 1
   24717    23730    23738 1
   24718    23731    23732 1
   24719    23731    23739 1
   24720    23732    23733 1
   24721    23733    23734 1
   24722    23733    23737 1
   24723    23734    23735 1
   24724    23735    23736 1
   24725    23736    23737 1
   24726    23737    23738 1
   24727    23738    23842 1
   24728    23740    23741 1
   24729    23740    23756 1
   24730    23740    23757 1
   24731    23741    23742 1
   24732    23741    23748 1
   24733    23741    23758 1
   24734    23742    23743 1
   24735    23742    23759 1
   24736    23742    23760 1
   24737    23743    23744 1
   24738    23743    23761 1
   24739    23743    23762 1
   24740    23744    23745 1
   24741    23744    23763 1
   24742    23744    23764 1
   24743    23745    23746 1
   24744    23745    23765 1
   24745    23745    23766 1
   24746    23746    23747 1
   24747    23746    23767 1
   24748    23746    23768 1
   24749    23747    23769 1
   24750    23747    23770 1
   24751    23747    23771 1
   24752    23748    23749 1
   24753    23748    23772 1
   24754    23748    23773 1
   24755    23749    23750 1
   24756    23749    23774 1
   24757    23749    23775 1
   24758    23750    23751 1
   24759    23750    23776 1
   24760    23750    23777 1
   24761    23751    23752 1
   24762    23751    23778 1
   24763    23751    23779 1
   24764    23752    23753 1
   24765    23752    23780 1
   24766    23752    23781 1
   24767    23753    23754 1
   24768    23753    23782 1
   24769    23753    23783 1
   24770    23754    23755 1
   24771    23754    23784 1
   24772    23754    23785 1
   24773    23755    23786 1
   24774    23755    23787 1
   24775    23755    23788 1
   24776    23789    23790 1
   24777    23789    23805 1
   24778    23789    23806 1
   24779    23790    23791 1
   24780    23790    23797 1
   24781    23790    23807 1
   24782    23791    23792 1
   24783    23791    23808 1
   24784    23791    23809 1
   24785    23792    23793 1
   24786    23792    23810 1
   24787    23792    23811 1
   24788    23793    23794 1
   24789    23793    23812 1
   24790    23793    23813 1
   24791    23794    23795 1
   24792    23794    23814 1
   24793    23794    23815 1
   24794    23795    23796 1
   24795    23795    23816 1
   24796    23795    23817 1
   24797    23796    23818 1
   24798    23796    23819 1
   24799    23796    23820 1
   24800    23797    23798 1
   24801    23797    23821 1
   24802    23797    23822 1
   24803    23798    23799 1
   24804    23798    23823 1
   24805    23798    23824 1
   24806    23799    23800 1
   24807    23799    23825 1
   24808    23799    23826 1
   24809    23800    23801 1
   24810    23800    23827 1
   24811    23800    23828 1
   24812    23801    23802 1
   24813    23801    23829 1
   24814    23801    23830 1
   24815    23802    23803 1
   24816    23802    23831 1
   24817    23802    23832 1
   24818    23803    23804 1
   24819    23803    23833 1
   24820    23803    23834 1
   24821    23804    23835 1
   24822    23804    23836 1
   24823    23804    23837 1
   24824    23838    23839 1
   24825    23838    23845 1
   24826    23838    23861 1
   24827    23838    23910 1
   24828    23839    23840 1
   24829    23839    23843 1
   24830    23840    23841 1
   24831    23840    23844 1
   24832    23841    23842 1
   24833    23842    23843 1
   24834    23843    23849 1
   24835    23844    23845 1
   24836    23844    23848 1
   24837    23845    23846 1
   24838    23846    23847 1
   24839    23846    23850 1
   24840    23847    23848 1
   24841    23847    23853 1
   24842    23851    23852 1
   24843    23851    23859 1
   24844    23852    23853 1
   24845    23852    23860 1
   24846    23853    23854 1
   24847    23854    23855 1
   24848    23854    23858 1
   24849    23855    23856 1
   24850    23856    23857 1
   24851    23857    23858 1
   24852    23858    23859 1
   24853    23859    23963 1
   24854    23861    23862 1
   24855    23861    23877 1
   24856    23861    23878 1
   24857    23862    23863 1
   24858    23862    23869 1
   24859    23862    23879 1
   24860    23863    23864 1
   24861    23863    23880 1
   24862    23863    23881 1
   24863    23864    23865 1
   24864    23864    23882 1
   24865    23864    23883 1
   24866    23865    23866 1
   24867    23865    23884 1
   24868    23865    23885 1
   24869    23866    23867 1
   24870    23866    23886 1
   24871    23866    23887 1
   24872    23867    23868 1
   24873    23867    23888 1
   24874    23867    23889 1
   24875    23868    23890 1
   24876    23868    23891 1
   24877    23868    23892 1
   24878    23869    23870 1
   24879    23869    23893 1
   24880    23869    23894 1
   24881    23870    23871 1
   24882    23870    23895 1
   24883    23870    23896 1
   24884    23871    23872 1
   24885    23871    23897 1
   24886    23871    23898 1
   24887    23872    23873 1
   24888    23872    23899 1
   24889    23872    23900 1
   24890    23873    23874 1
   24891    23873    23901 1
   24892    23873    23902 1
   24893    23874    23875 1
   24894    23874    23903 1
   24895    23874    23904 1
   24896    23875    23876 1
   24897    23875    23905 1
   24898    23875    23906 1
   24899    23876    23907 1
   24900    23876    23908 1
   24901    23876    23909 1
   24902    23910    23911 1
   24903    23910    23926 1
   24904    23910    23927 1
   24905    23911    23912 1
   24906    23911    23918 1
   24907    23911    23928 1
   24908    23912    23913 1
   24909    23912    23929 1
   24910    23912    23930 1
   24911    23913    23914 1
   24912    23913    23931 1
   24913    23913    23932 1
   24914    23914    23915 1
   24915    23914    23933 1
   24916    23914    23934 1
   24917    23915    23916 1
   24918    23915    23935 1
   24919    23915    23936 1
   24920    23916    23917 1
   24921    23916    23937 1
   24922    23916    23938 1
   24923    23917    23939 1
   24924    23917    23940 1
   24925    23917    23941 1
   24926    23918    23919 1
   24927    23918    23942 1
   24928    23918    23943 1
   24929    23919    23920 1
   24930    23919    23944 1
   24931    23919    23945 1
   24932    23920    23921 1
   24933    23920    23946 1
   24934    23920    23947 1
   24935    23921    23922 1
   24936    23921    23948 1
   24937    23921    23949 1
   24938    23922    23923 1
   24939    23922    23950 1
   24940    23922    23951 1
   24941    23923    23924 1
   24942    23923    23952 1
   24943    23923    23953 1
   24944    23924    23925 1
   24945    23924    23954 1
   24946    23924    23955 1
   24947    23925    23956 1
   24948    23925    23957 1
   24949    23925    23958 1
   24950    23959    23960 1
   24951    23959    23966 1
   24952    23959    23982 1
   24953    23959    24031 1
   24954    23960    23961 1
   24955    23960    23964 1
   24956    23961    23962 1
   24957    23961    23965 1
   24958    23962    23963 1
   24959    23963    23964 1
   24960    23964    23970 1
   24961    23965    23966 1
   24962    23965    23969 1
   24963    23966    23967 1
   24964    23967    23968 1
   24965    23967    23971 1
   24966    23968    23969 1
   24967    23968    23974 1
   24968    23972    23973 1
   24969    23972    23980 1
   24970    23973    23974 1
   24971    23973    23981 1
   24972    23974    23975 1
   24973    23975    23976 1
   24974    23975    23979 1
   24975    23976    23977 1
   24976    23977    23978 1
   24977    23978    23979 1
   24978    23979    23980 1
   24979    23980    24084 1
   24980    23982    23983 1
   24981    23982    23998 1
   24982    23982    23999 1
   24983    23983    23984 1
   24984    23983    23990 1
   24985    23983    24000 1
   24986    23984    23985 1
   24987    23984    24001 1
   24988    23984    24002 1
   24989    23985    23986 1
   24990    23985    24003 1
   24991    23985    24004 1
   24992    23986    23987 1
   24993    23986    24005 1
   24994    23986    24006 1
   24995    23987    23988 1
   24996    23987    24007 1
   24997    23987    24008 1
   24998    23988    23989 1
   24999    23988    24009 1
   25000    23988    24010 1
   25001    23989    24011 1
   25002    23989    24012 1
   25003    23989    24013 1
   25004    23990    23991 1
   25005    23990    24014 1
   25006    23990    24015 1
   25007    23991    23992 1
   25008    23991    24016 1
   25009    23991    24017 1
   25010    23992    23993 1
   25011    23992    24018 1
   25012    23992    24019 1
   25013    23993    23994 1
   25014    23993    24020 1
   25015    23993    24021 1
   25016    23994    23995 1
   25017    23994    24022 1
   25018    23994    24023 1
   25019    23995    23996 1
   25020    23995    24024 1
   25021    23995    24025 1
   25022    23996    23997 1
   25023    23996    24026 1
   25024    23996    24027 1
   25025    23997    24028 1
   25026    23997    24029 1
   25027    23997    24030 1
   25028    24031    24032 1
   25029    24031    24047 1
   25030    24031    24048 1
   25031    24032    24033 1
   25032    24032    24039 1
   25033    24032    24049 1
   25034    24033    24034 1
   25035    24033    24050 1
   25036    24033    24051 1
   25037    24034    24035 1
   25038    24034    24052 1
   25039    24034    24053 1
   25040    24035    24036 1
   25041    24035    24054 1
   25042    24035    24055 1
   25043    24036    24037 1
   25044    24036    24056 1
   25045    24036    24057 1
   25046    24037    24038 1
   25047    24037    24058 1
   25048    24037    24059 1
   25049    24038    24060 1
   25050    24038    24061 1
   25051    24038    24062 1
   25052    24039    24040 1
   25053    24039    24063 1
   25054    24039    24064 1
   25055    24040    24041 1
   25056    24040    24065 1
   25057    24040    24066 1
   25058    24041    24042 1
   25059    24041    24067 1
   25060    24041    24068 1
   25061    24042    24043 1
   25062    24042    24069 1
   25063    24042    24070 1
   25064    24043    24044 1
   25065    24043    24071 1
   25066    24043    24072 1
   25067    24044    24045 1
   25068    24044    24073 1
   25069    24044    24074 1
   25070    24045    24046 1
   25071    24045    24075 1
   25072    24045    24076 1
   25073    24046    24077 1
   25074    24046    24078 1
   25075    24046    24079 1
   25076    24080    24081 1
   25077    24080    24087 1
   25078    24080    24103 1
   25079    24080    24152 1
   25080    24081    24082 1
   25081    24081    24085 1
   25082    24082    24083 1
   25083    24082    24086 1
   25084    24083    24084 1
   25085    24084    24085 1
   25086    24085    24091 1
   25087    24086    24087 1
   25088    24086    24090 1
   25089    24087    24088 1
   25090    24088    24089 1
   25091    24088    24092 1
   25092    24089    24090 1
   25093    24089    24095 1
   25094    24093    24094 1
   25095    24093    24101 1
   25096    24094    24095 1
   25097    24094    24102 1
   25098    24095    24096 1
   25099    24096    24097 1
   25100    24096    24100 1
   25101    24097    24098 1
   25102    24098    24099 1
   25103    24099    24100 1
   25104    24100    24101 1
   25105    24101    24205 1
   25106    24103    24104 1
   25107    24103    24119 1
   25108    24103    24120 1
   25109    24104    24105 1
   25110    24104    24111 1
   25111    24104    24121 1
   25112    24105    24106 1
   25113    24105    24122 1
   25114    24105    24123 1
   25115    24106    24107 1
   25116    24106    24124 1
   25117    24106    24125 1
   25118    24107    24108 1
   25119    24107    24126 1
   25120    24107    24127 1
   25121    24108    24109 1
   25122    24108    24128 1
   25123    24108    24129 1
   25124    24109    24110 1
   25125    24109    24130 1
   25126    24109    24131 1
   25127    24110    24132 1
   25128    24110    24133 1
   25129    24110    24134 1
   25130    24111    24112 1
   25131    24111    24135 1
   25132    24111    24136 1
   25133    24112    24113 1
   25134    24112    24137 1
   25135    24112    24138 1
   25136    24113    24114 1
   25137    24113    24139 1
   25138    24113    24140 1
   25139    24114    24115 1
   25140    24114    24141 1
   25141    24114    24142 1
   25142    24115    24116 1
   25143    24115    24143 1
   25144    24115    24144 1
   25145    24116    24117 1
   25146    24116    24145 1
   25147    24116    24146 1
   25148    24117    24118 1
   25149    24117    24147 1
   25150    24117    24148 1
   25151    24118    24149 1
   25152    24118    24150 1
   25153    24118    24151 1
   25154    24152    24153 1
   25155    24152    24168 1
   25156    24152    24169 1
   25157    24153    24154 1
   25158    24153    24160 1
   25159    24153    24170 1
   25160    24154    24155 1
   25161    24154    24171 1
   25162    24154    24172 1
   25163    24155    24156 1
   25164    24155    24173 1
   25165    24155    24174 1
   25166    24156    24157 1
   25167    24156    24175 1
   25168    24156    24176 1
   25169    24157    24158 1
   25170    24157    24177 1
   25171    24157    24178 1
   25172    24158    24159 1
   25173    24158    24179 1
   25174    24158    24180 1
   25175    24159    24181 1
   25176    24159    24182 1
   25177    24159    24183 1
   25178    24160    24161 1
   25179    24160    24184 1
   25180    24160    24185 1
   25181    24161    24162 1
   25182    24161    24186 1
   25183    24161    24187 1
   25184    24162    24163 1
   25185    24162    24188 1
   25186    24162    24189 1
   25187    24163    24164 1
   25188    24163    24190 1
   25189    24163    24191 1
   25190    24164    24165 1
   25191    24164    24192 1
   25192    24164    24193 1
   25193    24165    24166 1
   25194    24165    24194 1
   25195    24165    24195 1
   25196    24166    24167 1
   25197    24166    24196 1
   25198    24166    24197 1
   25199    24167    24198 1
   25200    24167    24199 1
   25201    24167    24200 1
   25202    24201    24202 1
   25203    24201    24208 1
   25204    24201    24224 1
   25205    24201    24273 1
   25206    24202    24203 1
   25207    24202    24206 1
   25208    24203    24204 1
   25209    24203    24207 1
   25210    24204    24205 1
   25211    24205    24206 1
   25212    24206    24212 1
   25213    24207    24208 1
   25214    24207    24211 1
   25215    24208    24209 1
   25216    24209    24210 1
   25217    24209    24213 1
   25218    24210    24211 1
   25219    24210    24216 1
   25220    24214    24215 1
   25221    24214    24222 1
   25222    24215    24216 1
   25223    24215    24223 1
   25224    24216    24217 1
   25225    24217    24218 1
   25226    24217    24221 1
   25227    24218    24219 1
   25228    24219    24220 1
   25229    24220    24221 1
   25230    24221    24222 1
   25231    24222    24326 1
   25232    24224    24225 1
   25233    24224    24240 1
   25234    24224    24241 1
   25235    24225    24226 1
   25236    24225    24232 1
   25237    24225    24242 1
   25238    24226    24227 1
   25239    24226    24243 1
   25240    24226    24244 1
   25241    24227    24228 1
   25242    24227    24245 1
   25243    24227    24246 1
   25244    24228    24229 1
   25245    24228    24247 1
   25246    24228    24248 1
   25247    24229    24230 1
   25248    24229    24249 1
   25249    24229    24250 1
   25250    24230    24231 1
   25251    24230    24251 1
   25252    24230    24252 1
   25253    24231    24253 1
   25254    24231    24254 1
   25255    24231    24255 1
   25256    24232    24233 1
   25257    24232    24256 1
   25258    24232    24257 1
   25259    24233    24234 1
   25260    24233    24258 1
   25261    24233    24259 1
   25262    24234    24235 1
   25263    24234    24260 1
   25264    24234    24261 1
   25265    24235    24236 1
   25266    24235    24262 1
   25267    24235    24263 1
   25268    24236    24237 1
   25269    24236    24264 1
   25270    24236    24265 1
   25271    24237    24238 1
   25272    24237    24266 1
   25273    24237    24267 1
   25274    24238    24239 1
   25275    24238    24268 1
   25276    24238    24269 1
   25277    24239    24270 1
   25278    24239    24271 1
   25279    24239    24272 1
   25280    24273    24274 1
   25281    24273    24289 1
   25282    24273    24290 1
   25283    24274    24275 1
   25284    24274    24281 1
   25285    24274    24291 1
   25286    24275    24276 1
   25287    24275    24292 1
   25288    24275    24293 1
   25289    24276    24277 1
   25290    24276    24294 1
   25291    24276    24295 1
   25292    24277    24278 1
   25293    24277    24296 1
   25294    24277    24297 1
   25295    24278    24279 1
   25296    24278    24298 1
   25297    24278    24299 1
   25298    24279    24280 1
   25299    24279    24300 1
   25300    24279    24301 1
   25301    24280    24302 1
   25302    24280    24303 1
   25303    24280    24304 1
   25304    24281    24282 1
   25305    24281    24305 1
   25306    24281    24306 1
   25307    24282    24283 1
   25308    24282    24307 1
   25309    24282    24308 1
   25310    24283    24284 1
   25311    24283    24309 1
   25312    24283    24310 1
   25313    24284    24285 1
   25314    24284    24311 1
   25315    24284    24312 1
   25316    24285    24286 1
   25317    24285    24313 1
   25318    24285    24314 1
   25319    24286    24287 1
   25320    24286    24315 1
   25321    24286    24316 1
   25322    24287    24288 1
   25323    24287    24317 1
   25324    24287    24318 1
   25325    24288    24319 1
   25326    24288    24320 1
   25327    24288    24321 1
   25328    24322    24323 1
   25329    24322    24329 1
   25330    24322    24345 1
   25331    24322    24394 1
   25332    24323    24324 1
   25333    24323    24327 1
   25334    24324    24325 1
   25335    24324    24328 1
   25336    24325    24326 1
   25337    24326    24327 1
   25338    24327    24333 1
   25339    24328    24329 1
   25340    24328    24332 1
   25341    24329    24330 1
   25342    24330    24331 1
   25343    24330    24334 1
   25344    24331    24332 1
   25345    24331    24337 1
   25346    24335    24336 1
   25347    24335    24343 1
   25348    24336    24337 1
   25349    24336    24344 1
   25350    24337    24338 1
   25351    24338    24339 1
   25352    24338    24342 1
   25353    24339    24340 1
   25354    24340    24341 1
   25355    24341    24342 1
   25356    24342    24343 1
   25357    24343    24447 1
   25358    24345    24346 1
   25359    24345    24361 1
   25360    24345    24362 1
   25361    24346    24347 1
   25362    24346    24353 1
   25363    24346    24363 1
   25364    24347    24348 1
   25365    24347    24364 1
   25366    24347    24365 1
   25367    24348    24349 1
   25368    24348    24366 1
   25369    24348    24367 1
   25370    24349    24350 1
   25371    24349    24368 1
   25372    24349    24369 1
   25373    24350    24351 1
   25374    24350    24370 1
   25375    24350    24371 1
   25376    24351    24352 1
   25377    24351    24372 1
   25378    24351    24373 1
   25379    24352    24374 1
   25380    24352    24375 1
   25381    24352    24376 1
   25382    24353    24354 1
   25383    24353    24377 1
   25384    24353    24378 1
   25385    24354    24355 1
   25386    24354    24379 1
   25387    24354    24380 1
   25388    24355    24356 1
   25389    24355    24381 1
   25390    24355    24382 1
   25391    24356    24357 1
   25392    24356    24383 1
   25393    24356    24384 1
   25394    24357    24358 1
   25395    24357    24385 1
   25396    24357    24386 1
   25397    24358    24359 1
   25398    24358    24387 1
   25399    24358    24388 1
   25400    24359    24360 1
   25401    24359    24389 1
   25402    24359    24390 1
   25403    24360    24391 1
   25404    24360    24392 1
   25405    24360    24393 1
   25406    24394    24395 1
   25407    24394    24410 1
   25408    24394    24411 1
   25409    24395    24396 1
   25410    24395    24402 1
   25411    24395    24412 1
   25412    24396    24397 1
   25413    24396    24413 1
   25414    24396    24414 1
   25415    24397    24398 1
   25416    24397    24415 1
   25417    24397    24416 1
   25418    24398    24399 1
   25419    24398    24417 1
   25420    24398    24418 1
   25421    24399    24400 1
   25422    24399    24419 1
   25423    24399    24420 1
   25424    24400    24401 1
   25425    24400    24421 1
   25426    24400    24422 1
   25427    24401    24423 1
   25428    24401    24424 1
   25429    24401    24425 1
   25430    24402    24403 1
   25431    24402    24426 1
   25432    24402    24427 1
   25433    24403    24404 1
   25434    24403    24428 1
   25435    24403    24429 1
   25436    24404    24405 1
   25437    24404    24430 1
   25438    24404    24431 1
   25439    24405    24406 1
   25440    24405    24432 1
   25441    24405    24433 1
   25442    24406    24407 1
   25443    24406    24434 1
   25444    24406    24435 1
   25445    24407    24408 1
   25446    24407    24436 1
   25447    24407    24437 1
   25448    24408    24409 1
   25449    24408    24438 1
   25450    24408    24439 1
   25451    24409    24440 1
   25452    24409    24441 1
   25453    24409    24442 1
   25454    24443    24444 1
   25455    24443    24450 1
   25456    24443    24466 1
   25457    24443    24515 1
   25458    24444    24445 1
   25459    24444    24448 1
   25460    24445    24446 1
   25461    24445    24449 1
   25462    24446    24447 1
   25463    24447    24448 1
   25464    24448    24454 1
   25465    24449    24450 1
   25466    24449    24453 1
   25467    24450    24451 1
   25468    24451    24452 1
   25469    24451    24455 1
   25470    24452    24453 1
   25471    24452    24458 1
   25472    24456    24457 1
   25473    24456    24464 1
   25474    24457    24458 1
   25475    24457    24465 1
   25476    24458    24459 1
   25477    24459    24460 1
   25478    24459    24463 1
   25479    24460    24461 1
   25480    24461    24462 1
   25481    24462    24463 1
   25482    24463    24464 1
   25483    24464    24568 1
   25484    24466    24467 1
   25485    24466    24482 1
   25486    24466    24483 1
   25487    24467    24468 1
   25488    24467    24474 1
   25489    24467    24484 1
   25490    24468    24469 1
   25491    24468    24485 1
   25492    24468    24486 1
   25493    24469    24470 1
   25494    24469    24487 1
   25495    24469    24488 1
   25496    24470    24471 1
   25497    24470    24489 1
   25498    24470    24490 1
   25499    24471    24472 1
   25500    24471    24491 1
   25501    24471    24492 1
   25502    24472    24473 1
   25503    24472    24493 1
   25504    24472    24494 1
   25505    24473    24495 1
   25506    24473    24496 1
   25507    24473    24497 1
   25508    24474    24475 1
   25509    24474    24498 1
   25510    24474    24499 1
   25511    24475    24476 1
   25512    24475    24500 1
   25513    24475    24501 1
   25514    24476    24477 1
   25515    24476    24502 1
   25516    24476    24503 1
   25517    24477    24478 1
   25518    24477    24504 1
   25519    24477    24505 1
   25520    24478    24479 1
   25521    24478    24506 1
   25522    24478    24507 1
   25523    24479    24480 1
   25524    24479    24508 1
   25525    24479    24509 1
   25526    24480    24481 1
   25527    24480    24510 1
   25528    24480    24511 1
   25529    24481    24512 1
   25530    24481    24513 1
   25531    24481    24514 1
   25532    24515    24516 1
   25533    24515    24531 1
   25534    24515    24532 1
   25535    24516    24517 1
   25536    24516    24523 1
   25537    24516    24533 1
   25538    24517    24518 1
   25539    24517    24534 1
   25540    24517    24535 1
   25541    24518    24519 1
   25542    24518    24536 1
   25543    24518    24537 1
   25544    24519    24520 1
   25545    24519    24538 1
   25546    24519    24539 1
   25547    24520    24521 1
   25548    24520    24540 1
   25549    24520    24541 1
   25550    24521    24522 1
   25551    24521    24542 1
   25552    24521    24543 1
   25553    24522    24544 1
   25554    24522    24545 1
   25555    24522    24546 1
   25556    24523    24524 1
   25557    24523    24547 1
   25558    24523    24548 1
   25559    24524    24525 1
   25560    24524    24549 1
   25561    24524    24550 1
   25562    24525    24526 1
   25563    24525    24551 1
   25564    24525    24552 1
   25565    24526    24527 1
   25566    24526    24553 1
   25567    24526    24554 1
   25568    24527    24528 1
   25569    24527    24555 1
   25570    24527    24556 1
   25571    24528    24529 1
   25572    24528    24557 1
   25573    24528    24558 1
   25574    24529    24530 1
   25575    24529    24559 1
   25576    24529    24560 1
   25577    24530    24561 1
   25578    24530    24562 1
   25579    24530    24563 1
   25580    24564    24565 1
   25581    24564    24571 1
   25582    24564    24587 1
   25583    24564    24636 1
   25584    24565    24566 1
   25585    24565    24569 1
   25586    24566    24567 1
   25587    24566    24570 1
   25588    24567    24568 1
   25589    24568    24569 1
   25590    24569    24575 1
   25591    24570    24571 1
   25592    24570    24574 1
   25593    24571    24572 1
   25594    24572    24573 1
   25595    24572    24576 1
   25596    24573    24574 1
   25597    24573    24579 1
   25598    24577    24578 1
   25599    24577    24585 1
   25600    24578    24579 1
   25601    24578    24586 1
   25602    24579    24580 1
   25603    24580    24581 1
   25604    24580    24584 1
   25605    24581    24582 1
   25606    24582    24583 1
   25607    24583    24584 1
   25608    24584    24585 1
   25609    24585    24689 1
   25610    24587    24588 1
   25611    24587    24603 1
   25612    24587    24604 1
   25613    24588    24589 1
   25614    24588    24595 1
   25615    24588    24605 1
   25616    24589    24590 1
   25617    24589    24606 1
   25618    24589    24607 1
   25619    24590    24591 1
   25620    24590    24608 1
   25621    24590    24609 1
   25622    24591    24592 1
   25623    24591    24610 1
   25624    24591    24611 1
   25625    24592    24593 1
   25626    24592    24612 1
   25627    24592    24613 1
   25628    24593    24594 1
   25629    24593    24614 1
   25630    24593    24615 1
   25631    24594    24616 1
   25632    24594    24617 1
   25633    24594    24618 1
   25634    24595    24596 1
   25635    24595    24619 1
   25636    24595    24620 1
   25637    24596    24597 1
   25638    24596    24621 1
   25639    24596    24622 1
   25640    24597    24598 1
   25641    24597    24623 1
   25642    24597    24624 1
   25643    24598    24599 1
   25644    24598    24625 1
   25645    24598    24626 1
   25646    24599    24600 1
   25647    24599    24627 1
   25648    24599    24628 1
   25649    24600    24601 1
   25650    24600    24629 1
   25651    24600    24630 1
   25652    24601    24602 1
   25653    24601    24631 1
   25654    24601    24632 1
   25655    24602    24633 1
   25656    24602    24634 1
   25657    24602    24635 1
   25658    24636    24637 1
   25659    24636    24652 1
   25660    24636    24653 1
   25661    24637    24638 1
   25662    24637    24644 1
   25663    24637    24654 1
   25664    24638    24639 1
   25665    24638    24655 1
   25666    24638    24656 1
   25667    24639    24640 1
   25668    24639    24657 1
   25669    24639    24658 1
   25670    24640    24641 1
   25671    24640    24659 1
   25672    24640    24660 1
   25673    24641    24642 1
   25674    24641    24661 1
   25675    24641    24662 1
   25676    24642    24643 1
   25677    24642    24663 1
   25678    24642    24664 1
   25679    24643    24665 1
   25680    24643    24666 1
   25681    24643    24667 1
   25682    24644    24645 1
   25683    24644    24668 1
   25684    24644    24669 1
   25685    24645    24646 1
   25686    24645    24670 1
   25687    24645    24671 1
   25688    24646    24647 1
   25689    24646    24672 1
   25690    24646    24673 1
   25691    24647    24648 1
   25692    24647    24674 1
   25693    24647    24675 1
   25694    24648    24649 1
   25695    24648    24676 1
   25696    24648    24677 1
   25697    24649    24650 1
   25698    24649    24678 1
   25699    24649    24679 1
   25700    24650    24651 1
   25701    24650    24680 1
   25702    24650    24681 1
   25703    24651    24682 1
   25704    24651    24683 1
   25705    24651    24684 1
   25706    24685    24686 1
   25707    24685    24692 1
   25708    24685    24708 1
   25709    24685    24757 1
   25710    24686    24687 1
   25711    24686    24690 1
   25712    24687    24688 1
   25713    24687    24691 1
   25714    24688    24689 1
   25715    24689    24690 1
   25716    24690    24696 1
   25717    24691    24692 1
   25718    24691    24695 1
   25719    24692    24693 1
   25720    24693    24694 1
   25721    24693    24697 1
   25722    24694    24695 1
   25723    24694    24700 1
   25724    24698    24699 1
   25725    24698    24706 1
   25726    24699    24700 1
   25727    24699    24707 1
   25728    24700    24701 1
   25729    24701    24702 1
   25730    24701    24705 1
   25731    24702    24703 1
   25732    24703    24704 1
   25733    24704    24705 1
   25734    24705    24706 1
   25735    24706    24810 1
   25736    24708    24709 1
   25737    24708    24724 1
   25738    24708    24725 1
   25739    24709    24710 1
   25740    24709    24716 1
   25741    24709    24726 1
   25742    24710    24711 1
   25743    24710    24727 1
   25744    24710    24728 1
   25745    24711    24712 1
   25746    24711    24729 1
   25747    24711    24730 1
   25748    24712    24713 1
   25749    24712    24731 1
   25750    24712    24732 1
   25751    24713    24714 1
   25752    24713    24733 1
   25753    24713    24734 1
   25754    24714    24715 1
   25755    24714    24735 1
   25756    24714    24736 1
   25757    24715    24737 1
   25758    24715    24738 1
   25759    24715    24739 1
   25760    24716    24717 1
   25761    24716    24740 1
   25762    24716    24741 1
   25763    24717    24718 1
   25764    24717    24742 1
   25765    24717    24743 1
   25766    24718    24719 1
   25767    24718    24744 1
   25768    24718    24745 1
   25769    24719    24720 1
   25770    24719    24746 1
   25771    24719    24747 1
   25772    24720    24721 1
   25773    24720    24748 1
   25774    24720    24749 1
   25775    24721    24722 1
   25776    24721    24750 1
   25777    24721    24751 1
   25778    24722    24723 1
   25779    24722    24752 1
   25780    24722    24753 1
   25781    24723    24754 1
   25782    24723    24755 1
   25783    24723    24756 1
   25784    24757    24758 1
   25785    24757    24773 1
   25786    24757    24774 1
   25787    24758    24759 1
   25788    24758    24765 1
   25789    24758    24775 1
   25790    24759    24760 1
   25791    24759    24776 1
   25792    24759    24777 1
   25793    24760    24761 1
   25794    24760    24778 1
   25795    24760    24779 1
   25796    24761    24762 1
   25797    24761    24780 1
   25798    24761    24781 1
   25799    24762    24763 1
   25800    24762    24782 1
   25801    24762    24783 1
   25802    24763    24764 1
   25803    24763    24784 1
   25804    24763    24785 1
   25805    24764    24786 1
   25806    24764    24787 1
   25807    24764    24788 1
   25808    24765    24766 1
   25809    24765    24789 1
   25810    24765    24790 1
   25811    24766    24767 1
   25812    24766    24791 1
   25813    24766    24792 1
   25814    24767    24768 1
   25815    24767    24793 1
   25816    24767    24794 1
   25817    24768    24769 1
   25818    24768    24795 1
   25819    24768    24796 1
   25820    24769    24770 1
   25821    24769    24797 1
   25822    24769    24798 1
   25823    24770    24771 1
   25824    24770    24799 1
   25825    24770    24800 1
   25826    24771    24772 1
   25827    24771    24801 1
   25828    24771    24802 1
   25829    24772    24803 1
   25830    24772    24804 1
   25831    24772    24805 1
   25832    24806    24807 1
   25833    24806    24813 1
   25834    24806    24829 1
   25835    24806    24878 1
   25836    24807    24808 1
   25837    24807    24811 1
   25838    24808    24809 1
   25839    24808    24812 1
   25840    24809    24810 1
   25841    24810    24811 1
   25842    24811    24817 1
   25843    24812    24813 1
   25844    24812    24816 1
   25845    24813    24814 1
   25846    24814    24815 1
   25847    24814    24818 1
   25848    24815    24816 1
   25849    24815    24821 1
   25850    24819    24820 1
   25851    24819    24827 1
   25852    24820    24821 1
   25853    24820    24828 1
   25854    24821    24822 1
   25855    24822    24823 1
   25856    24822    24826 1
   25857    24823    24824 1
   25858    24824    24825 1
   25859    24825    24826 1
   25860    24826    24827 1
   25861    24827    24931 1
   25862    24829    24830 1
   25863    24829    24845 1
   25864    24829    24846 1
   25865    24830    24831 1
   25866    24830    24837 1
   25867    24830    24847 1
   25868    24831    24832 1
   25869    24831    24848 1
   25870    24831    24849 1
   25871    24832    24833 1
   25872    24832    24850 1
   25873    24832    24851 1
   25874    24833    24834 1
   25875    24833    24852 1
   25876    24833    24853 1
   25877    24834    24835 1
   25878    24834    24854 1
   25879    24834    24855 1
   25880    24835    24836 1
   25881    24835    24856 1
   25882    24835    24857 1
   25883    24836    24858 1
   25884    24836    24859 1
   25885    24836    24860 1
   25886    24837    24838 1
   25887    24837    24861 1
   25888    24837    24862 1
   25889    24838    24839 1
   25890    24838    24863 1
   25891    24838    24864 1
   25892    24839    24840 1
   25893    24839    24865 1
   25894    24839    24866 1
   25895    24840    24841 1
   25896    24840    24867 1
   25897    24840    24868 1
   25898    24841    24842 1
   25899    24841    24869 1
   25900    24841    24870 1
   25901    24842    24843 1
   25902    24842    24871 1
   25903    24842    24872 1
   25904    24843    24844 1
   25905    24843    24873 1
   25906    24843    24874 1
   25907    24844    24875 1
   25908    24844    24876 1
   25909    24844    24877 1
   25910    24878    24879 1
   25911    24878    24894 1
   25912    24878    24895 1
   25913    24879    24880 1
   25914    24879    24886 1
   25915    24879    24896 1
   25916    24880    24881 1
   25917    24880    24897 1
   25918    24880    24898 1
   25919    24881    24882 1
   25920    24881    24899 1
   25921    24881    24900 1
   25922    24882    24883 1
   25923    24882    24901 1
   25924    24882    24902 1
   25925    24883    24884 1
   25926    24883    24903 1
   25927    24883    24904 1
   25928    24884    24885 1
   25929    24884    24905 1
   25930    24884    24906 1
   25931    24885    24907 1
   25932    24885    24908 1
   25933    24885    24909 1
   25934    24886    24887 1
   25935    24886    24910 1
   25936    24886    24911 1
   25937    24887    24888 1
   25938    24887    24912 1
   25939    24887    24913 1
   25940    24888    24889 1
   25941    24888    24914 1
   25942    24888    24915 1
   25943    24889    24890 1
   25944    24889    24916 1
   25945    24889    24917 1
   25946    24890    24891 1
   25947    24890    24918 1
   25948    24890    24919 1
   25949    24891    24892 1
   25950    24891    24920 1
   25951    24891    24921 1
   25952    24892    24893 1
   25953    24892    24922 1
   25954    24892    24923 1
   25955    24893    24924 1
   25956    24893    24925 1
   25957    24893    24926 1
   25958    24927    24928 1
   25959    24927    24934 1
   25960    24927    24950 1
   25961    24927    24999 1
   25962    24928    24929 1
   25963    24928    24932 1
   25964    24929    24930 1
   25965    24929    24933 1
   25966    24930    24931 1
   25967    24931    24932 1
   25968    24932    24938 1
   25969    24933    24934 1
   25970    24933    24937 1
   25971    24934    24935 1
   25972    24935    24936 1
   25973    24935    24939 1
   25974    24936    24937 1
   25975    24936    24942 1
   25976    24940    24941 1
   25977    24940    24948 1
   25978    24941    24942 1
   25979    24941    24949 1
   25980    24942    24943 1
   25981    24943    24944 1
   25982    24943    24947 1
   25983    24944    24945 1
   25984    24945    24946 1
   25985    24946    24947 1
   25986    24947    24948 1
   25987    24948    25052 1
   25988    24950    24951 1
   25989    24950    24966 1
   25990    24950    24967 1
   25991    24951    24952 1
   25992    24951    24958 1
   25993    24951    24968 1
   25994    24952    24953 1
   25995    24952    24969 1
   25996    24952    24970 1
   25997    24953    24954 1
   25998    24953    24971 1
   25999    24953    24972 1
   26000    24954    24955 1
   26001    24954    24973 1
   26002    24954    24974 1
   26003    24955    24956 1
   26004    24955    24975 1
   26005    24955    24976 1
   26006    24956    24957 1
   26007    24956    24977 1
   26008    24956    24978 1
   26009    24957    24979 1
   26010    24957    24980 1
   26011    24957    24981 1
   26012    24958    24959 1
   26013    24958    24982 1
   26014    24958    24983 1
   26015    24959    24960 1
   26016    24959    24984 1
   26017    24959    24985 1
   26018    24960    24961 1
   26019    24960    24986 1
   26020    24960    24987 1
   26021    24961    24962 1
   26022    24961    24988 1
   26023    24961    24989 1
   26024    24962    24963 1
   26025    24962    24990 1
   26026    24962    24991 1
   26027    24963    24964 1
   26028    24963    24992 1
   26029    24963    24993 1
   26030    24964    24965 1
   26031    24964    24994 1
   26032    24964    24995 1
   26033    24965    24996 1
   26034    24965    24997 1
   26035    24965    24998 1
   26036    24999    25000 1
   26037    24999    25015 1
   26038    24999    25016 1
   26039    25000    25001 1
   26040    25000    25007 1
   26041    25000    25017 1
   26042    25001    25002 1
   26043    25001    25018 1
   26044    25001    25019 1
   26045    25002    25003 1
   26046    25002    25020 1
   26047    25002    25021 1
   26048    25003    25004 1
   26049    25003    25022 1
   26050    25003    25023 1
   26051    25004    25005 1
   26052    25004    25024 1
   26053    25004    25025 1
   26054    25005    25006 1
   26055    25005    25026 1
   26056    25005    25027 1
   26057    25006    25028 1
   26058    25006    25029 1
   26059    25006    25030 1
   26060    25007    25008 1
   26061    25007    25031 1
   26062    25007    25032 1
   26063    25008    25009 1
   26064    25008    25033 1
   26065    25008    25034 1
   26066    25009    25010 1
   26067    25009    25035 1
   26068    25009    25036 1
   26069    25010    25011 1
   26070    25010    25037 1
   26071    25010    25038 1
   26072    25011    25012 1
   26073    25011    25039 1
   26074    25011    25040 1
   26075    25012    25013 1
   26076    25012    25041 1
   26077    25012    25042 1
   26078    25013    25014 1
   26079    25013    25043 1
   26080    25013    25044 1
   26081    25014    25045 1
   26082    25014    25046 1
   26083    25014    25047 1
   26084    25048    25049 1
   26085    25048    25055 1
   26086    25048    25071 1
   26087    25048    25120 1
   26088    25049    25050 1
   26089    25049    25053 1
   26090    25050    25051 1
   26091    25050    25054 1
   26092    25051    25052 1
   26093    25052    25053 1
   26094    25053    25059 1
   26095    25054    25055 1
   26096    25054    25058 1
   26097    25055    25056 1
   26098    25056    25057 1
   26099    25056    25060 1
   26100    25057    25058 1
   26101    25057    25063 1
   26102    25061    25062 1
   26103    25061    25069 1
   26104    25062    25063 1
   26105    25062    25070 1
   26106    25063    25064 1
   26107    25064    25065 1
   26108    25064    25068 1
   26109    25065    25066 1
   26110    25066    25067 1
   26111    25067    25068 1
   26112    25068    25069 1
   26113    25069    25173 1
   26114    25071    25072 1
   26115    25071    25087 1
   26116    25071    25088 1
   26117    25072    25073 1
   26118    25072    25079 1
   26119    25072    25089 1
   26120    25073    25074 1
   26121    25073    25090 1
   26122    25073    25091 1
   26123    25074    25075 1
   26124    25074    25092 1
   26125    25074    25093 1
   26126    25075    25076 1
   26127    25075    25094 1
   26128    25075    25095 1
   26129    25076    25077 1
   26130    25076    25096 1
   26131    25076    25097 1
   26132    25077    25078 1
   26133    25077    25098 1
   26134    25077    25099 1
   26135    25078    25100 1
   26136    25078    25101 1
   26137    25078    25102 1
   26138    25079    25080 1
   26139    25079    25103 1
   26140    25079    25104 1
   26141    25080    25081 1
   26142    25080    25105 1
   26143    25080    25106 1
   26144    25081    25082 1
   26145    25081    25107 1
   26146    25081    25108 1
   26147    25082    25083 1
   26148    25082    25109 1
   26149    25082    25110 1
   26150    25083    25084 1
   26151    25083    25111 1
   26152    25083    25112 1
   26153    25084    25085 1
   26154    25084    25113 1
   26155    25084    25114 1
   26156    25085    25086 1
   26157    25085    25115 1
   26158    25085    25116 1
   26159    25086    25117 1
   26160    25086    25118 1
   26161    25086    25119 1
   26162    25120    25121 1
   26163    25120    25136 1
   26164    25120    25137 1
   26165    25121    25122 1
   26166    25121    25128 1
   26167    25121    25138 1
   26168    25122    25123 1
   26169    25122    25139 1
   26170    25122    25140 1
   26171    25123    25124 1
   26172    25123    25141 1
   26173    25123    25142 1
   26174    25124    25125 1
   26175    25124    25143 1
   26176    25124    25144 1
   26177    25125    25126 1
   26178    25125    25145 1
   26179    25125    25146 1
   26180    25126    25127 1
   26181    25126    25147 1
   26182    25126    25148 1
   26183    25127    25149 1
   26184    25127    25150 1
   26185    25127    25151 1
   26186    25128    25129 1
   26187    25128    25152 1
   26188    25128    25153 1
   26189    25129    25130 1
   26190    25129    25154 1
   26191    25129    25155 1
   26192    25130    25131 1
   26193    25130    25156 1
   26194    25130    25157 1
   26195    25131    25132 1
   26196    25131    25158 1
   26197    25131    25159 1
   26198    25132    25133 1
   26199    25132    25160 1
   26200    25132    25161 1
   26201    25133    25134 1
   26202    25133    25162 1
   26203    25133    25163 1
   26204    25134    25135 1
   26205    25134    25164 1
   26206    25134    25165 1
   26207    25135    25166 1
   26208    25135    25167 1
   26209    25135    25168 1
   26210    25169    25170 1
   26211    25169    25176 1
   26212    25169    25192 1
   26213    25169    25241 1
   26214    25170    25171 1
   26215    25170    25174 1
   26216    25171    25172 1
   26217    25171    25175 1
   26218    25172    25173 1
   26219    25173    25174 1
   26220    25174    25180 1
   26221    25175    25176 1
   26222    25175    25179 1
   26223    25176    25177 1
   26224    25177    25178 1
   26225    25177    25181 1
   26226    25178    25179 1
   26227    25178    25184 1
   26228    25182    25183 1
   26229    25182    25190 1
   26230    25183    25184 1
   26231    25183    25191 1
   26232    25184    25185 1
   26233    25185    25186 1
   26234    25185    25189 1
   26235    25186    25187 1
   26236    25187    25188 1
   26237    25188    25189 1
   26238    25189    25190 1
   26239    25190    25294 1
   26240    25192    25193 1
   26241    25192    25208 1
   26242    25192    25209 1
   26243    25193    25194 1
   26244    25193    25200 1
   26245    25193    25210 1
   26246    25194    25195 1
   26247    25194    25211 1
   26248    25194    25212 1
   26249    25195    25196 1
   26250    25195    25213 1
   26251    25195    25214 1
   26252    25196    25197 1
   26253    25196    25215 1
   26254    25196    25216 1
   26255    25197    25198 1
   26256    25197    25217 1
   26257    25197    25218 1
   26258    25198    25199 1
   26259    25198    25219 1
   26260    25198    25220 1
   26261    25199    25221 1
   26262    25199    25222 1
   26263    25199    25223 1
   26264    25200    25201 1
   26265    25200    25224 1
   26266    25200    25225 1
   26267    25201    25202 1
   26268    25201    25226 1
   26269    25201    25227 1
   26270    25202    25203 1
   26271    25202    25228 1
   26272    25202    25229 1
   26273    25203    25204 1
   26274    25203    25230 1
   26275    25203    25231 1
   26276    25204    25205 1
   26277    25204    25232 1
   26278    25204    25233 1
   26279    25205    25206 1
   26280    25205    25234 1
   26281    25205    25235 1
   26282    25206    25207 1
   26283    25206    25236 1
   26284    25206    25237 1
   26285    25207    25238 1
   26286    25207    25239 1
   26287    25207    25240 1
   26288    25241    25242 1
   26289    25241    25257 1
   26290    25241    25258 1
   26291    25242    25243 1
   26292    25242    25249 1
   26293    25242    25259 1
   26294    25243    25244 1
   26295    25243    25260 1
   26296    25243    25261 1
   26297    25244    25245 1
   26298    25244    25262 1
   26299    25244    25263 1
   26300    25245    25246 1
   26301    25245    25264 1
   26302    25245    25265 1
   26303    25246    25247 1
   26304    25246    25266 1
   26305    25246    25267 1
   26306    25247    25248 1
   26307    25247    25268 1
   26308    25247    25269 1
   26309    25248    25270 1
   26310    25248    25271 1
   26311    25248    25272 1
   26312    25249    25250 1
   26313    25249    25273 1
   26314    25249    25274 1
   26315    25250    25251 1
   26316    25250    25275 1
   26317    25250    25276 1
   26318    25251    25252 1
   26319    25251    25277 1
   26320    25251    25278 1
   26321    25252    25253 1
   26322    25252    25279 1
   26323    25252    25280 1
   26324    25253    25254 1
   26325    25253    25281 1
   26326    25253    25282 1
   26327    25254    25255 1
   26328    25254    25283 1
   26329    25254    25284 1
   26330    25255    25256 1
   26331    25255    25285 1
   26332    25255    25286 1
   26333    25256    25287 1
   26334    25256    25288 1
   26335    25256    25289 1
   26336    25290    25291 1
   26337    25290    25297 1
   26338    25290    25313 1
   26339    25290    25362 1
   26340    25291    25292 1
   26341    25291    25295 1
   26342    25292    25293 1
   26343    25292    25296 1
   26344    25293    25294 1
   26345    25294    25295 1
   26346    25295    25301 1
   26347    25296    25297 1
   26348    25296    25300 1
   26349    25297    25298 1
   26350    25298    25299 1
   26351    25298    25302 1
   26352    25299    25300 1
   26353    25299    25305 1
   26354    25303    25304 1
   26355    25303    25311 1
   26356    25304    25305 1
   26357    25304    25312 1
   26358    25305    25306 1
   26359    25306    25307 1
   26360    25306    25310 1
   26361    25307    25308 1
   26362    25308    25309 1
   26363    25309    25310 1
   26364    25310    25311 1
   26365    25311    25415 1
   26366    25313    25314 1
   26367    25313    25329 1
   26368    25313    25330 1
   26369    25314    25315 1
   26370    25314    25321 1
   26371    25314    25331 1
   26372    25315    25316 1
   26373    25315    25332 1
   26374    25315    25333 1
   26375    25316    25317 1
   26376    25316    25334 1
   26377    25316    25335 1
   26378    25317    25318 1
   26379    25317    25336 1
   26380    25317    25337 1
   26381    25318    25319 1
   26382    25318    25338 1
   26383    25318    25339 1
   26384    25319    25320 1
   26385    25319    25340 1
   26386    25319    25341 1
   26387    25320    25342 1
   26388    25320    25343 1
   26389    25320    25344 1
   26390    25321    25322 1
   26391    25321    25345 1
   26392    25321    25346 1
   26393    25322    25323 1
   26394    25322    25347 1
   26395    25322    25348 1
   26396    25323    25324 1
   26397    25323    25349 1
   26398    25323    25350 1
   26399    25324    25325 1
   26400    25324    25351 1
   26401    25324    25352 1
   26402    25325    25326 1
   26403    25325    25353 1
   26404    25325    25354 1
   26405    25326    25327 1
   26406    25326    25355 1
   26407    25326    25356 1
   26408    25327    25328 1
   26409    25327    25357 1
   26410    25327    25358 1
   26411    25328    25359 1
   26412    25328    25360 1
   26413    25328    25361 1
   26414    25362    25363 1
   26415    25362    25378 1
   26416    25362    25379 1
   26417    25363    25364 1
   26418    25363    25370 1
   26419    25363    25380 1
   26420    25364    25365 1
   26421    25364    25381 1
   26422    25364    25382 1
   26423    25365    25366 1
   26424    25365    25383 1
   26425    25365    25384 1
   26426    25366    25367 1
   26427    25366    25385 1
   26428    25366    25386 1
   26429    25367    25368 1
   26430    25367    25387 1
   26431    25367    25388 1
   26432    25368    25369 1
   26433    25368    25389 1
   26434    25368    25390 1
   26435    25369    25391 1
   26436    25369    25392 1
   26437    25369    25393 1
   26438    25370    25371 1
   26439    25370    25394 1
   26440    25370    25395 1
   26441    25371    25372 1
   26442    25371    25396 1
   26443    25371    25397 1
   26444    25372    25373 1
   26445    25372    25398 1
   26446    25372    25399 1
   26447    25373    25374 1
   26448    25373    25400 1
   26449    25373    25401 1
   26450    25374    25375 1
   26451    25374    25402 1
   26452    25374    25403 1
   26453    25375    25376 1
   26454    25375    25404 1
   26455    25375    25405 1
   26456    25376    25377 1
   26457    25376    25406 1
   26458    25376    25407 1
   26459    25377    25408 1
   26460    25377    25409 1
   26461    25377    25410 1
   26462    25411    25412 1
   26463    25411    25418 1
   26464    25411    25434 1
   26465    25411    25483 1
   26466    25412    25413 1
   26467    25412    25416 1
   26468    25413    25414 1
   26469    25413    25417 1
   26470    25414    25415 1
   26471    25415    25416 1
   26472    25416    25422 1
   26473    25417    25418 1
   26474    25417    25421 1
   26475    25418    25419 1
   26476    25419    25420 1
   26477    25419    25423 1
   26478    25420    25421 1
   26479    25420    25426 1
   26480    25424    25425 1
   26481    25424    25432 1
   26482    25425    25426 1
   26483    25425    25433 1
   26484    25426    25427 1
   26485    25427    25428 1
   26486    25427    25431 1
   26487    25428    25429 1
   26488    25429    25430 1
   26489    25430    25431 1
   26490    25431    25432 1
   26491    25432    25536 1
   26492    25434    25435 1
   26493    25434    25450 1
   26494    25434    25451 1
   26495    25435    25436 1
   26496    25435    25442 1
   26497    25435    25452 1
   26498    25436    25437 1
   26499    25436    25453 1
   26500    25436    25454 1
   26501    25437    25438 1
   26502    25437    25455 1
   26503    25437    25456 1
   26504    25438    25439 1
   26505    25438    25457 1
   26506    25438    25458 1
   26507    25439    25440 1
   26508    25439    25459 1
   26509    25439    25460 1
   26510    25440    25441 1
   26511    25440    25461 1
   26512    25440    25462 1
   26513    25441    25463 1
   26514    25441    25464 1
   26515    25441    25465 1
   26516    25442    25443 1
   26517    25442    25466 1
   26518    25442    25467 1
   26519    25443    25444 1
   26520    25443    25468 1
   26521    25443    25469 1
   26522    25444    25445 1
   26523    25444    25470 1
   26524    25444    25471 1
   26525    25445    25446 1
   26526    25445    25472 1
   26527    25445    25473 1
   26528    25446    25447 1
   26529    25446    25474 1
   26530    25446    25475 1
   26531    25447    25448 1
   26532    25447    25476 1
   26533    25447    25477 1
   26534    25448    25449 1
   26535    25448    25478 1
   26536    25448    25479 1
   26537    25449    25480 1
   26538    25449    25481 1
   26539    25449    25482 1
   26540    25483    25484 1
   26541    25483    25499 1
   26542    25483    25500 1
   26543    25484    25485 1
   26544    25484    25491 1
   26545    25484    25501 1
   26546    25485    25486 1
   26547    25485    25502 1
   26548    25485    25503 1
   26549    25486    25487 1
   26550    25486    25504 1
   26551    25486    25505 1
   26552    25487    25488 1
   26553    25487    25506 1
   26554    25487    25507 1
   26555    25488    25489 1
   26556    25488    25508 1
   26557    25488    25509 1
   26558    25489    25490 1
   26559    25489    25510 1
   26560    25489    25511 1
   26561    25490    25512 1
   26562    25490    25513 1
   26563    25490    25514 1
   26564    25491    25492 1
   26565    25491    25515 1
   26566    25491    25516 1
   26567    25492    25493 1
   26568    25492    25517 1
   26569    25492    25518 1
   26570    25493    25494 1
   26571    25493    25519 1
   26572    25493    25520 1
   26573    25494    25495 1
   26574    25494    25521 1
   26575    25494    25522 1
   26576    25495    25496 1
   26577    25495    25523 1
   26578    25495    25524 1
   26579    25496    25497 1
   26580    25496    25525 1
   26581    25496    25526 1
   26582    25497    25498 1
   26583    25497    25527 1
   26584    25497    25528 1
   26585    25498    25529 1
   26586    25498    25530 1
   26587    25498    25531 1
   26588    25532    25533 1
   26589    25532    25539 1
   26590    25532    25555 1
   26591    25532    25604 1
   26592    25533    25534 1
   26593    25533    25537 1
   26594    25534    25535 1
   26595    25534    25538 1
   26596    25535    25536 1
   26597    25536    25537 1
   26598    25537    25543 1
   26599    25538    25539 1
   26600    25538    25542 1
   26601    25539    25540 1
   26602    25540    25541 1
   26603    25540    25544 1
   26604    25541    25542 1
   26605    25541    25547 1
   26606    25545    25546 1
   26607    25545    25553 1
   26608    25546    25547 1
   26609    25546    25554 1
   26610    25547    25548 1
   26611    25548    25549 1
   26612    25548    25552 1
   26613    25549    25550 1
   26614    25550    25551 1
   26615    25551    25552 1
   26616    25552    25553 1
   26617    25553    25657 1
   26618    25555    25556 1
   26619    25555    25571 1
   26620    25555    25572 1
   26621    25556    25557 1
   26622    25556    25563 1
   26623    25556    25573 1
   26624    25557    25558 1
   26625    25557    25574 1
   26626    25557    25575 1
   26627    25558    25559 1
   26628    25558    25576 1
   26629    25558    25577 1
   26630    25559    25560 1
   26631    25559    25578 1
   26632    25559    25579 1
   26633    25560    25561 1
   26634    25560    25580 1
   26635    25560    25581 1
   26636    25561    25562 1
   26637    25561    25582 1
   26638    25561    25583 1
   26639    25562    25584 1
   26640    25562    25585 1
   26641    25562    25586 1
   26642    25563    25564 1
   26643    25563    25587 1
   26644    25563    25588 1
   26645    25564    25565 1
   26646    25564    25589 1
   26647    25564    25590 1
   26648    25565    25566 1
   26649    25565    25591 1
   26650    25565    25592 1
   26651    25566    25567 1
   26652    25566    25593 1
   26653    25566    25594 1
   26654    25567    25568 1
   26655    25567    25595 1
   26656    25567    25596 1
   26657    25568    25569 1
   26658    25568    25597 1
   26659    25568    25598 1
   26660    25569    25570 1
   26661    25569    25599 1
   26662    25569    25600 1
   26663    25570    25601 1
   26664    25570    25602 1
   26665    25570    25603 1
   26666    25604    25605 1
   26667    25604    25620 1
   26668    25604    25621 1
   26669    25605    25606 1
   26670    25605    25612 1
   26671    25605    25622 1
   26672    25606    25607 1
   26673    25606    25623 1
   26674    25606    25624 1
   26675    25607    25608 1
   26676    25607    25625 1
   26677    25607    25626 1
   26678    25608    25609 1
   26679    25608    25627 1
   26680    25608    25628 1
   26681    25609    25610 1
   26682    25609    25629 1
   26683    25609    25630 1
   26684    25610    25611 1
   26685    25610    25631 1
   26686    25610    25632 1
   26687    25611    25633 1
   26688    25611    25634 1
   26689    25611    25635 1
   26690    25612    25613 1
   26691    25612    25636 1
   26692    25612    25637 1
   26693    25613    25614 1
   26694    25613    25638 1
   26695    25613    25639 1
   26696    25614    25615 1
   26697    25614    25640 1
   26698    25614    25641 1
   26699    25615    25616 1
   26700    25615    25642 1
   26701    25615    25643 1
   26702    25616    25617 1
   26703    25616    25644 1
   26704    25616    25645 1
   26705    25617    25618 1
   26706    25617    25646 1
   26707    25617    25647 1
   26708    25618    25619 1
   26709    25618    25648 1
   26710    25618    25649 1
   26711    25619    25650 1
   26712    25619    25651 1
   26713    25619    25652 1
   26714    25653    25654 1
   26715    25653    25660 1
   26716    25653    25676 1
   26717    25653    25725 1
   26718    25654    25655 1
   26719    25654    25658 1
   26720    25655    25656 1
   26721    25655    25659 1
   26722    25656    25657 1
   26723    25657    25658 1
   26724    25658    25664 1
   26725    25659    25660 1
   26726    25659    25663 1
   26727    25660    25661 1
   26728    25661    25662 1
   26729    25661    25665 1
   26730    25662    25663 1
   26731    25662    25668 1
   26732    25666    25667 1
   26733    25666    25674 1
   26734    25667    25668 1
   26735    25667    25675 1
   26736    25668    25669 1
   26737    25669    25670 1
   26738    25669    25673 1
   26739    25670    25671 1
   26740    25671    25672 1
   26741    25672    25673 1
   26742    25673    25674 1
   26743    25674    25778 1
   26744    25676    25677 1
   26745    25676    25692 1
   26746    25676    25693 1
   26747    25677    25678 1
   26748    25677    25684 1
   26749    25677    25694 1
   26750    25678    25679 1
   26751    25678    25695 1
   26752    25678    25696 1
   26753    25679    25680 1
   26754    25679    25697 1
   26755    25679    25698 1
   26756    25680    25681 1
   26757    25680    25699 1
   26758    25680    25700 1
   26759    25681    25682 1
   26760    25681    25701 1
   26761    25681    25702 1
   26762    25682    25683 1
   26763    25682    25703 1
   26764    25682    25704 1
   26765    25683    25705 1
   26766    25683    25706 1
   26767    25683    25707 1
   26768    25684    25685 1
   26769    25684    25708 1
   26770    25684    25709 1
   26771    25685    25686 1
   26772    25685    25710 1
   26773    25685    25711 1
   26774    25686    25687 1
   26775    25686    25712 1
   26776    25686    25713 1
   26777    25687    25688 1
   26778    25687    25714 1
   26779    25687    25715 1
   26780    25688    25689 1
   26781    25688    25716 1
   26782    25688    25717 1
   26783    25689    25690 1
   26784    25689    25718 1
   26785    25689    25719 1
   26786    25690    25691 1
   26787    25690    25720 1
   26788    25690    25721 1
   26789    25691    25722 1
   26790    25691    25723 1
   26791    25691    25724 1
   26792    25725    25726 1
   26793    25725    25741 1
   26794    25725    25742 1
   26795    25726    25727 1
   26796    25726    25733 1
   26797    25726    25743 1
   26798    25727    25728 1
   26799    25727    25744 1
   26800    25727    25745 1
   26801    25728    25729 1
   26802    25728    25746 1
   26803    25728    25747 1
   26804    25729    25730 1
   26805    25729    25748 1
   26806    25729    25749 1
   26807    25730    25731 1
   26808    25730    25750 1
   26809    25730    25751 1
   26810    25731    25732 1
   26811    25731    25752 1
   26812    25731    25753 1
   26813    25732    25754 1
   26814    25732    25755 1
   26815    25732    25756 1
   26816    25733    25734 1
   26817    25733    25757 1
   26818    25733    25758 1
   26819    25734    25735 1
   26820    25734    25759 1
   26821    25734    25760 1
   26822    25735    25736 1
   26823    25735    25761 1
   26824    25735    25762 1
   26825    25736    25737 1
   26826    25736    25763 1
   26827    25736    25764 1
   26828    25737    25738 1
   26829    25737    25765 1
   26830    25737    25766 1
   26831    25738    25739 1
   26832    25738    25767 1
   26833    25738    25768 1
   26834    25739    25740 1
   26835    25739    25769 1
   26836    25739    25770 1
   26837    25740    25771 1
   26838    25740    25772 1
   26839    25740    25773 1
   26840    25774    25775 1
   26841    25774    25781 1
   26842    25774    25797 1
   26843    25774    25846 1
   26844    25775    25776 1
   26845    25775    25779 1
   26846    25776    25777 1
   26847    25776    25780 1
   26848    25777    25778 1
   26849    25778    25779 1
   26850    25779    25785 1
   26851    25780    25781 1
   26852    25780    25784 1
   26853    25781    25782 1
   26854    25782    25783 1
   26855    25782    25786 1
   26856    25783    25784 1
   26857    25783    25789 1
   26858    25787    25788 1
   26859    25787    25795 1
   26860    25788    25789 1
   26861    25788    25796 1
   26862    25789    25790 1
   26863    25790    25791 1
   26864    25790    25794 1
   26865    25791    25792 1
   26866    25792    25793 1
   26867    25793    25794 1
   26868    25794    25795 1
   26869    25795    25899 1
   26870    25797    25798 1
   26871    25797    25813 1
   26872    25797    25814 1
   26873    25798    25799 1
   26874    25798    25805 1
   26875    25798    25815 1
   26876    25799    25800 1
   26877    25799    25816 1
   26878    25799    25817 1
   26879    25800    25801 1
   26880    25800    25818 1
   26881    25800    25819 1
   26882    25801    25802 1
   26883    25801    25820 1
   26884    25801    25821 1
   26885    25802    25803 1
   26886    25802    25822 1
   26887    25802    25823 1
   26888    25803    25804 1
   26889    25803    25824 1
   26890    25803    25825 1
   26891    25804    25826 1
   26892    25804    25827 1
   26893    25804    25828 1
   26894    25805    25806 1
   26895    25805    25829 1
   26896    25805    25830 1
   26897    25806    25807 1
   26898    25806    25831 1
   26899    25806    25832 1
   26900    25807    25808 1
   26901    25807    25833 1
   26902    25807    25834 1
   26903    25808    25809 1
   26904    25808    25835 1
   26905    25808    25836 1
   26906    25809    25810 1
   26907    25809    25837 1
   26908    25809    25838 1
   26909    25810    25811 1
   26910    25810    25839 1
   26911    25810    25840 1
   26912    25811    25812 1
   26913    25811    25841 1
   26914    25811    25842 1
   26915    25812    25843 1
   26916    25812    25844 1
   26917    25812    25845 1
   26918    25846    25847 1
   26919    25846    25862 1
   26920    25846    25863 1
   26921    25847    25848 1
   26922    25847    25854 1
   26923    25847    25864 1
   26924    25848    25849 1
   26925    25848    25865 1
   26926    25848    25866 1
   26927    25849    25850 1
   26928    25849    25867 1
   26929    25849    25868 1
   26930    25850    25851 1
   26931    25850    25869 1
   26932    25850    25870 1
   26933    25851    25852 1
   26934    25851    25871 1
   26935    25851    25872 1
   26936    25852    25853 1
   26937    25852    25873 1
   26938    25852    25874 1
   26939    25853    25875 1
   26940    25853    25876 1
   26941    25853    25877 1
   26942    25854    25855 1
   26943    25854    25878 1
   26944    25854    25879 1
   26945    25855    25856 1
   26946    25855    25880 1
   26947    25855    25881 1
   26948    25856    25857 1
   26949    25856    25882 1
   26950    25856    25883 1
   26951    25857    25858 1
   26952    25857    25884 1
   26953    25857    25885 1
   26954    25858    25859 1
   26955    25858    25886 1
   26956    25858    25887 1
   26957    25859    25860 1
   26958    25859    25888 1
   26959    25859    25889 1
   26960    25860    25861 1
   26961    25860    25890 1
   26962    25860    25891 1
   26963    25861    25892 1
   26964    25861    25893 1
   26965    25861    25894 1
   26966    25895    25896 1
   26967    25895    25902 1
   26968    25895    25918 1
   26969    25895    25967 1
   26970    25896    25897 1
   26971    25896    25900 1
   26972    25897    25898 1
   26973    25897    25901 1
   26974    25898    25899 1
   26975    25899    25900 1
   26976    25900    25906 1
   26977    25901    25902 1
   26978    25901    25905 1
   26979    25902    25903 1
   26980    25903    25904 1
   26981    25903    25907 1
   26982    25904    25905 1
   26983    25904    25910 1
   26984    25908    25909 1
   26985    25908    25916 1
   26986    25909    25910 1
   26987    25909    25917 1
   26988    25910    25911 1
   26989    25911    25912 1
   26990    25911    25915 1
   26991    25912    25913 1
   26992    25913    25914 1
   26993    25914    25915 1
   26994    25915    25916 1
   26995    25916    26020 1
   26996    25918    25919 1
   26997    25918    25934 1
   26998    25918    25935 1
   26999    25919    25920 1
   27000    25919    25926 1
   27001    25919    25936 1
   27002    25920    25921 1
   27003    25920    25937 1
   27004    25920    25938 1
   27005    25921    25922 1
   27006    25921    25939 1
   27007    25921    25940 1
   27008    25922    25923 1
   27009    25922    25941 1
   27010    25922    25942 1
   27011    25923    25924 1
   27012    25923    25943 1
   27013    25923    25944 1
   27014    25924    25925 1
   27015    25924    25945 1
   27016    25924    25946 1
   27017    25925    25947 1
   27018    25925    25948 1
   27019    25925    25949 1
   27020    25926    25927 1
   27021    25926    25950 1
   27022    25926    25951 1
   27023    25927    25928 1
   27024    25927    25952 1
   27025    25927    25953 1
   27026    25928    25929 1
   27027    25928    25954 1
   27028    25928    25955 1
   27029    25929    25930 1
   27030    25929    25956 1
   27031    25929    25957 1
   27032    25930    25931 1
   27033    25930    25958 1
   27034    25930    25959 1
   27035    25931    25932 1
   27036    25931    25960 1
   27037    25931    25961 1
   27038    25932    25933 1
   27039    25932    25962 1
   27040    25932    25963 1
   27041    25933    25964 1
   27042    25933    25965 1
   27043    25933    25966 1
   27044    25967    25968 1
   27045    25967    25983 1
   27046    25967    25984 1
   27047    25968    25969 1
   27048    25968    25975 1
   27049    25968    25985 1
   27050    25969    25970 1
   27051    25969    25986 1
   27052    25969    25987 1
   27053    25970    25971 1
   27054    25970    25988 1
   27055    25970    25989 1
   27056    25971    25972 1
   27057    25971    25990 1
   27058    25971    25991 1
   27059    25972    25973 1
   27060    25972    25992 1
   27061    25972    25993 1
   27062    25973    25974 1
   27063    25973    25994 1
   27064    25973    25995 1
   27065    25974    25996 1
   27066    25974    25997 1
   27067    25974    25998 1
   27068    25975    25976 1
   27069    25975    25999 1
   27070    25975    26000 1
   27071    25976    25977 1
   27072    25976    26001 1
   27073    25976    26002 1
   27074    25977    25978 1
   27075    25977    26003 1
   27076    25977    26004 1
   27077    25978    25979 1
   27078    25978    26005 1
   27079    25978    26006 1
   27080    25979    25980 1
   27081    25979    26007 1
   27082    25979    26008 1
   27083    25980    25981 1
   27084    25980    26009 1
   27085    25980    26010 1
   27086    25981    25982 1
   27087    25981    26011 1
   27088    25981    26012 1
   27089    25982    26013 1
   27090    25982    26014 1
   27091    25982    26015 1
   27092    26016    26017 1
   27093    26016    26023 1
   27094    26016    26039 1
   27095    26016    26088 1
   27096    26017    26018 1
   27097    26017    26021 1
   27098    26018    26019 1
   27099    26018    26022 1
   27100    26019    26020 1
   27101    26020    26021 1
   27102    26021    26027 1
   27103    26022    26023 1
   27104    26022    26026 1
   27105    26023    26024 1
   27106    26024    26025 1
   27107    26024    26028 1
   27108    26025    26026 1
   27109    26025    26031 1
   27110    26029    26030 1
   27111    26029    26037 1
   27112    26030    26031 1
   27113    26030    26038 1
   27114    26031    26032 1
   27115    26032    26033 1
   27116    26032    26036 1
   27117    26033    26034 1
   27118    26034    26035 1
   27119    26035    26036 1
   27120    26036    26037 1
   27121    26037    26141 1
   27122    26039    26040 1
   27123    26039    26055 1
   27124    26039    26056 1
   27125    26040    26041 1
   27126    26040    26047 1
   27127    26040    26057 1
   27128    26041    26042 1
   27129    26041    26058 1
   27130    26041    26059 1
   27131    26042    26043 1
   27132    26042    26060 1
   27133    26042    26061 1
   27134    26043    26044 1
   27135    26043    26062 1
   27136    26043    26063 1
   27137    26044    26045 1
   27138    26044    26064 1
   27139    26044    26065 1
   27140    26045    26046 1
   27141    26045    26066 1
   27142    26045    26067 1
   27143    26046    26068 1
   27144    26046    26069 1
   27145    26046    26070 1
   27146    26047    26048 1
   27147    26047    26071 1
   27148    26047    26072 1
   27149    26048    26049 1
   27150    26048    26073 1
   27151    26048    26074 1
   27152    26049    26050 1
   27153    26049    26075 1
   27154    26049    26076 1
   27155    26050    26051 1
   27156    26050    26077 1
   27157    26050    26078 1
   27158    26051    26052 1
   27159    26051    26079 1
   27160    26051    26080 1
   27161    26052    26053 1
   27162    26052    26081 1
   27163    26052    26082 1
   27164    26053    26054 1
   27165    26053    26083 1
   27166    26053    26084 1
   27167    26054    26085 1
   27168    26054    26086 1
   27169    26054    26087 1
   27170    26088    26089 1
   27171    26088    26104 1
   27172    26088    26105 1
   27173    26089    26090 1
   27174    26089    26096 1
   27175    26089    26106 1
   27176    26090    26091 1
   27177    26090    26107 1
   27178    26090    26108 1
   27179    26091    26092 1
   27180    26091    26109 1
   27181    26091    26110 1
   27182    26092    26093 1
   27183    26092    26111 1
   27184    26092    26112 1
   27185    26093    26094 1
   27186    26093    26113 1
   27187    26093    26114 1
   27188    26094    26095 1
   27189    26094    26115 1
   27190    26094    26116 1
   27191    26095    26117 1
   27192    26095    26118 1
   27193    26095    26119 1
   27194    26096    26097 1
   27195    26096    26120 1
   27196    26096    26121 1
   27197    26097    26098 1
   27198    26097    26122 1
   27199    26097    26123 1
   27200    26098    26099 1
   27201    26098    26124 1
   27202    26098    26125 1
   27203    26099    26100 1
   27204    26099    26126 1
   27205    26099    26127 1
   27206    26100    26101 1
   27207    26100    26128 1
   27208    26100    26129 1
   27209    26101    26102 1
   27210    26101    26130 1
   27211    26101    26131 1
   27212    26102    26103 1
   27213    26102    26132 1
   27214    26102    26133 1
   27215    26103    26134 1
   27216    26103    26135 1
   27217    26103    26136 1
   27218    26137    26138 1
   27219    26137    26144 1
   27220    26137    26160 1
   27221    26137    26209 1
   27222    26138    26139 1
   27223    26138    26142 1
   27224    26139    26140 1
   27225    26139    26143 1
   27226    26140    26141 1
   27227    26141    26142 1
   27228    26142    26148 1
   27229    26143    26144 1
   27230    26143    26147 1
   27231    26144    26145 1
   27232    26145    26146 1
   27233    26145    26149 1
   27234    26146    26147 1
   27235    26146    26152 1
   27236    26150    26151 1
   27237    26150    26158 1
   27238    26151    26152 1
   27239    26151    26159 1
   27240    26152    26153 1
   27241    26153    26154 1
   27242    26153    26157 1
   27243    26154    26155 1
   27244    26155    26156 1
   27245    26156    26157 1
   27246    26157    26158 1
   27247    26158    26262 1
   27248    26160    26161 1
   27249    26160    26176 1
   27250    26160    26177 1
   27251    26161    26162 1
   27252    26161    26168 1
   27253    26161    26178 1
   27254    26162    26163 1
   27255    26162    26179 1
   27256    26162    26180 1
   27257    26163    26164 1
   27258    26163    26181 1
   27259    26163    26182 1
   27260    26164    26165 1
   27261    26164    26183 1
   27262    26164    26184 1
   27263    26165    26166 1
   27264    26165    26185 1
   27265    26165    26186 1
   27266    26166    26167 1
   27267    26166    26187 1
   27268    26166    26188 1
   27269    26167    26189 1
   27270    26167    26190 1
   27271    26167    26191 1
   27272    26168    26169 1
   27273    26168    26192 1
   27274    26168    26193 1
   27275    26169    26170 1
   27276    26169    26194 1
   27277    26169    26195 1
   27278    26170    26171 1
   27279    26170    26196 1
   27280    26170    26197 1
   27281    26171    26172 1
   27282    26171    26198 1
   27283    26171    26199 1
   27284    26172    26173 1
   27285    26172    26200 1
   27286    26172    26201 1
   27287    26173    26174 1
   27288    26173    26202 1
   27289    26173    26203 1
   27290    26174    26175 1
   27291    26174    26204 1
   27292    26174    26205 1
   27293    26175    26206 1
   27294    26175    26207 1
   27295    26175    26208 1
   27296    26209    26210 1
   27297    26209    26225 1
   27298    26209    26226 1
   27299    26210    26211 1
   27300    26210    26217 1
   27301    26210    26227 1
   27302    26211    26212 1
   27303    26211    26228 1
   27304    26211    26229 1
   27305    26212    26213 1
   27306    26212    26230 1
   27307    26212    26231 1
   27308    26213    26214 1
   27309    26213    26232 1
   27310    26213    26233 1
   27311    26214    26215 1
   27312    26214    26234 1
   27313    26214    26235 1
   27314    26215    26216 1
   27315    26215    26236 1
   27316    26215    26237 1
   27317    26216    26238 1
   27318    26216    26239 1
   27319    26216    26240 1
   27320    26217    26218 1
   27321    26217    26241 1
   27322    26217    26242 1
   27323    26218    26219 1
   27324    26218    26243 1
   27325    26218    26244 1
   27326    26219    26220 1
   27327    26219    26245 1
   27328    26219    26246 1
   27329    26220    26221 1
   27330    26220    26247 1
   27331    26220    26248 1
   27332    26221    26222 1
   27333    26221    26249 1
   27334    26221    26250 1
   27335    26222    26223 1
   27336    26222    26251 1
   27337    26222    26252 1
   27338    26223    26224 1
   27339    26223    26253 1
   27340    26223    26254 1
   27341    26224    26255 1
   27342    26224    26256 1
   27343    26224    26257 1
   27344    26258    26259 1
   27345    26258    26265 1
   27346    26258    26281 1
   27347    26258    26330 1
   27348    26259    26260 1
   27349    26259    26263 1
   27350    26260    26261 1
   27351    26260    26264 1
   27352    26261    26262 1
   27353    26262    26263 1
   27354    26263    26269 1
   27355    26264    26265 1
   27356    26264    26268 1
   27357    26265    26266 1
   27358    26266    26267 1
   27359    26266    26270 1
   27360    26267    26268 1
   27361    26267    26273 1
   27362    26271    26272 1
   27363    26271    26279 1
   27364    26272    26273 1
   27365    26272    26280 1
   27366    26273    26274 1
   27367    26274    26275 1
   27368    26274    26278 1
   27369    26275    26276 1
   27370    26276    26277 1
   27371    26277    26278 1
   27372    26278    26279 1
   27373    26279    26383 1
   27374    26281    26282 1
   27375    26281    26297 1
   27376    26281    26298 1
   27377    26282    26283 1
   27378    26282    26289 1
   27379    26282    26299 1
   27380    26283    26284 1
   27381    26283    26300 1
   27382    26283    26301 1
   27383    26284    26285 1
   27384    26284    26302 1
   27385    26284    26303 1
   27386    26285    26286 1
   27387    26285    26304 1
   27388    26285    26305 1
   27389    26286    26287 1
   27390    26286    26306 1
   27391    26286    26307 1
   27392    26287    26288 1
   27393    26287    26308 1
   27394    26287    26309 1
   27395    26288    26310 1
   27396    26288    26311 1
   27397    26288    26312 1
   27398    26289    26290 1
   27399    26289    26313 1
   27400    26289    26314 1
   27401    26290    26291 1
   27402    26290    26315 1
   27403    26290    26316 1
   27404    26291    26292 1
   27405    26291    26317 1
   27406    26291    26318 1
   27407    26292    26293 1
   27408    26292    26319 1
   27409    26292    26320 1
   27410    26293    26294 1
   27411    26293    26321 1
   27412    26293    26322 1
   27413    26294    26295 1
   27414    26294    26323 1
   27415    26294    26324 1
   27416    26295    26296 1
   27417    26295    26325 1
   27418    26295    26326 1
   27419    26296    26327 1
   27420    26296    26328 1
   27421    26296    26329 1
   27422    26330    26331 1
   27423    26330    26346 1
   27424    26330    26347 1
   27425    26331    26332 1
   27426    26331    26338 1
   27427    26331    26348 1
   27428    26332    26333 1
   27429    26332    26349 1
   27430    26332    26350 1
   27431    26333    26334 1
   27432    26333    26351 1
   27433    26333    26352 1
   27434    26334    26335 1
   27435    26334    26353 1
   27436    26334    26354 1
   27437    26335    26336 1
   27438    26335    26355 1
   27439    26335    26356 1
   27440    26336    26337 1
   27441    26336    26357 1
   27442    26336    26358 1
   27443    26337    26359 1
   27444    26337    26360 1
   27445    26337    26361 1
   27446    26338    26339 1
   27447    26338    26362 1
   27448    26338    26363 1
   27449    26339    26340 1
   27450    26339    26364 1
   27451    26339    26365 1
   27452    26340    26341 1
   27453    26340    26366 1
   27454    26340    26367 1
   27455    26341    26342 1
   27456    26341    26368 1
   27457    26341    26369 1
   27458    26342    26343 1
   27459    26342    26370 1
   27460    26342    26371 1
   27461    26343    26344 1
   27462    26343    26372 1
   27463    26343    26373 1
   27464    26344    26345 1
   27465    26344    26374 1
   27466    26344    26375 1
   27467    26345    26376 1
   27468    26345    26377 1
   27469    26345    26378 1
   27470    26379    26380 1
   27471    26379    26386 1
   27472    26379    26402 1
   27473    26379    26451 1
   27474    26380    26381 1
   27475    26380    26384 1
   27476    26381    26382 1
   27477    26381    26385 1
   27478    26382    26383 1
   27479    26383    26384 1
   27480    26384    26390 1
   27481    26385    26386 1
   27482    26385    26389 1
   27483    26386    26387 1
   27484    26387    26388 1
   27485    26387    26391 1
   27486    26388    26389 1
   27487    26388    26394 1
   27488    26392    26393 1
   27489    26392    26400 1
   27490    26393    26394 1
   27491    26393    26401 1
   27492    26394    26395 1
   27493    26395    26396 1
   27494    26395    26399 1
   27495    26396    26397 1
   27496    26397    26398 1
   27497    26398    26399 1
   27498    26399    26400 1
   27499    26400    26504 1
   27500    26402    26403 1
   27501    26402    26418 1
   27502    26402    26419 1
   27503    26403    26404 1
   27504    26403    26410 1
   27505    26403    26420 1
   27506    26404    26405 1
   27507    26404    26421 1
   27508    26404    26422 1
   27509    26405    26406 1
   27510    26405    26423 1
   27511    26405    26424 1
   27512    26406    26407 1
   27513    26406    26425 1
   27514    26406    26426 1
   27515    26407    26408 1
   27516    26407    26427 1
   27517    26407    26428 1
   27518    26408    26409 1
   27519    26408    26429 1
   27520    26408    26430 1
   27521    26409    26431 1
   27522    26409    26432 1
   27523    26409    26433 1
   27524    26410    26411 1
   27525    26410    26434 1
   27526    26410    26435 1
   27527    26411    26412 1
   27528    26411    26436 1
   27529    26411    26437 1
   27530    26412    26413 1
   27531    26412    26438 1
   27532    26412    26439 1
   27533    26413    26414 1
   27534    26413    26440 1
   27535    26413    26441 1
   27536    26414    26415 1
   27537    26414    26442 1
   27538    26414    26443 1
   27539    26415    26416 1
   27540    26415    26444 1
   27541    26415    26445 1
   27542    26416    26417 1
   27543    26416    26446 1
   27544    26416    26447 1
   27545    26417    26448 1
   27546    26417    26449 1
   27547    26417    26450 1
   27548    26451    26452 1
   27549    26451    26467 1
   27550    26451    26468 1
   27551    26452    26453 1
   27552    26452    26459 1
   27553    26452    26469 1
   27554    26453    26454 1
   27555    26453    26470 1
   27556    26453    26471 1
   27557    26454    26455 1
   27558    26454    26472 1
   27559    26454    26473 1
   27560    26455    26456 1
   27561    26455    26474 1
   27562    26455    26475 1
   27563    26456    26457 1
   27564    26456    26476 1
   27565    26456    26477 1
   27566    26457    26458 1
   27567    26457    26478 1
   27568    26457    26479 1
   27569    26458    26480 1
   27570    26458    26481 1
   27571    26458    26482 1
   27572    26459    26460 1
   27573    26459    26483 1
   27574    26459    26484 1
   27575    26460    26461 1
   27576    26460    26485 1
   27577    26460    26486 1
   27578    26461    26462 1
   27579    26461    26487 1
   27580    26461    26488 1
   27581    26462    26463 1
   27582    26462    26489 1
   27583    26462    26490 1
   27584    26463    26464 1
   27585    26463    26491 1
   27586    26463    26492 1
   27587    26464    26465 1
   27588    26464    26493 1
   27589    26464    26494 1
   27590    26465    26466 1
   27591    26465    26495 1
   27592    26465    26496 1
   27593    26466    26497 1
   27594    26466    26498 1
   27595    26466    26499 1
   27596    26500    26501 1
   27597    26500    26507 1
   27598    26500    26523 1
   27599    26500    26572 1
   27600    26501    26502 1
   27601    26501    26505 1
   27602    26502    26503 1
   27603    26502    26506 1
   27604    26503    26504 1
   27605    26504    26505 1
   27606    26505    26511 1
   27607    26506    26507 1
   27608    26506    26510 1
   27609    26507    26508 1
   27610    26508    26509 1
   27611    26508    26512 1
   27612    26509    26510 1
   27613    26509    26515 1
   27614    26513    26514 1
   27615    26513    26521 1
   27616    26514    26515 1
   27617    26514    26522 1
   27618    26515    26516 1
   27619    26516    26517 1
   27620    26516    26520 1
   27621    26517    26518 1
   27622    26518    26519 1
   27623    26519    26520 1
   27624    26520    26521 1
   27625    26521    26625 1
   27626    26523    26524 1
   27627    26523    26539 1
   27628    26523    26540 1
   27629    26524    26525 1
   27630    26524    26531 1
   27631    26524    26541 1
   27632    26525    26526 1
   27633    26525    26542 1
   27634    26525    26543 1
   27635    26526    26527 1
   27636    26526    26544 1
   27637    26526    26545 1
   27638    26527    26528 1
   27639    26527    26546 1
   27640    26527    26547 1
   27641    26528    26529 1
   27642    26528    26548 1
   27643    26528    26549 1
   27644    26529    26530 1
   27645    26529    26550 1
   27646    26529    26551 1
   27647    26530    26552 1
   27648    26530    26553 1
   27649    26530    26554 1
   27650    26531    26532 1
   27651    26531    26555 1
   27652    26531    26556 1
   27653    26532    26533 1
   27654    26532    26557 1
   27655    26532    26558 1
   27656    26533    26534 1
   27657    26533    26559 1
   27658    26533    26560 1
   27659    26534    26535 1
   27660    26534    26561 1
   27661    26534    26562 1
   27662    26535    26536 1
   27663    26535    26563 1
   27664    26535    26564 1
   27665    26536    26537 1
   27666    26536    26565 1
   27667    26536    26566 1
   27668    26537    26538 1
   27669    26537    26567 1
   27670    26537    26568 1
   27671    26538    26569 1
   27672    26538    26570 1
   27673    26538    26571 1
   27674    26572    26573 1
   27675    26572    26588 1
   27676    26572    26589 1
   27677    26573    26574 1
   27678    26573    26580 1
   27679    26573    26590 1
   27680    26574    26575 1
   27681    26574    26591 1
   27682    26574    26592 1
   27683    26575    26576 1
   27684    26575    26593 1
   27685    26575    26594 1
   27686    26576    26577 1
   27687    26576    26595 1
   27688    26576    26596 1
   27689    26577    26578 1
   27690    26577    26597 1
   27691    26577    26598 1
   27692    26578    26579 1
   27693    26578    26599 1
   27694    26578    26600 1
   27695    26579    26601 1
   27696    26579    26602 1
   27697    26579    26603 1
   27698    26580    26581 1
   27699    26580    26604 1
   27700    26580    26605 1
   27701    26581    26582 1
   27702    26581    26606 1
   27703    26581    26607 1
   27704    26582    26583 1
   27705    26582    26608 1
   27706    26582    26609 1
   27707    26583    26584 1
   27708    26583    26610 1
   27709    26583    26611 1
   27710    26584    26585 1
   27711    26584    26612 1
   27712    26584    26613 1
   27713    26585    26586 1
   27714    26585    26614 1
   27715    26585    26615 1
   27716    26586    26587 1
   27717    26586    26616 1
   27718    26586    26617 1
   27719    26587    26618 1
   27720    26587    26619 1
   27721    26587    26620 1
   27722    26621    26622 1
   27723    26621    26628 1
   27724    26621    26644 1
   27725    26621    26693 1
   27726    26622    26623 1
   27727    26622    26626 1
   27728    26623    26624 1
   27729    26623    26627 1
   27730    26624    26625 1
   27731    26625    26626 1
   27732    26626    26632 1
   27733    26627    26628 1
   27734    26627    26631 1
   27735    26628    26629 1
   27736    26629    26630 1
   27737    26629    26633 1
   27738    26630    26631 1
   27739    26630    26636 1
   27740    26634    26635 1
   27741    26634    26642 1
   27742    26635    26636 1
   27743    26635    26643 1
   27744    26636    26637 1
   27745    26637    26638 1
   27746    26637    26641 1
   27747    26638    26639 1
   27748    26639    26640 1
   27749    26640    26641 1
   27750    26641    26642 1
   27751    26642    26746 1
   27752    26644    26645 1
   27753    26644    26660 1
   27754    26644    26661 1
   27755    26645    26646 1
   27756    26645    26652 1
   27757    26645    26662 1
   27758    26646    26647 1
   27759    26646    26663 1
   27760    26646    26664 1
   27761    26647    26648 1
   27762    26647    26665 1
   27763    26647    26666 1
   27764    26648    26649 1
   27765    26648    26667 1
   27766    26648    26668 1
   27767    26649    26650 1
   27768    26649    26669 1
   27769    26649    26670 1
   27770    26650    26651 1
   27771    26650    26671 1
   27772    26650    26672 1
   27773    26651    26673 1
   27774    26651    26674 1
   27775    26651    26675 1
   27776    26652    26653 1
   27777    26652    26676 1
   27778    26652    26677 1
   27779    26653    26654 1
   27780    26653    26678 1
   27781    26653    26679 1
   27782    26654    26655 1
   27783    26654    26680 1
   27784    26654    26681 1
   27785    26655    26656 1
   27786    26655    26682 1
   27787    26655    26683 1
   27788    26656    26657 1
   27789    26656    26684 1
   27790    26656    26685 1
   27791    26657    26658 1
   27792    26657    26686 1
   27793    26657    26687 1
   27794    26658    26659 1
   27795    26658    26688 1
   27796    26658    26689 1
   27797    26659    26690 1
   27798    26659    26691 1
   27799    26659    26692 1
   27800    26693    26694 1
   27801    26693    26709 1
   27802    26693    26710 1
   27803    26694    26695 1
   27804    26694    26701 1
   27805    26694    26711 1
   27806    26695    26696 1
   27807    26695    26712 1
   27808    26695    26713 1
   27809    26696    26697 1
   27810    26696    26714 1
   27811    26696    26715 1
   27812    26697    26698 1
   27813    26697    26716 1
   27814    26697    26717 1
   27815    26698    26699 1
   27816    26698    26718 1
   27817    26698    26719 1
   27818    26699    26700 1
   27819    26699    26720 1
   27820    26699    26721 1
   27821    26700    26722 1
   27822    26700    26723 1
   27823    26700    26724 1
   27824    26701    26702 1
   27825    26701    26725 1
   27826    26701    26726 1
   27827    26702    26703 1
   27828    26702    26727 1
   27829    26702    26728 1
   27830    26703    26704 1
   27831    26703    26729 1
   27832    26703    26730 1
   27833    26704    26705 1
   27834    26704    26731 1
   27835    26704    26732 1
   27836    26705    26706 1
   27837    26705    26733 1
   27838    26705    26734 1
   27839    26706    26707 1
   27840    26706    26735 1
   27841    26706    26736 1
   27842    26707    26708 1
   27843    26707    26737 1
   27844    26707    26738 1
   27845    26708    26739 1
   27846    26708    26740 1
   27847    26708    26741 1
   27848    26742    26743 1
   27849    26742    26749 1
   27850    26742    26765 1
   27851    26742    26814 1
   27852    26743    26744 1
   27853    26743    26747 1
   27854    26744    26745 1
   27855    26744    26748 1
   27856    26745    26746 1
   27857    26746    26747 1
   27858    26747    26753 1
   27859    26748    26749 1
   27860    26748    26752 1
   27861    26749    26750 1
   27862    26750    26751 1
   27863    26750    26754 1
   27864    26751    26752 1
   27865    26751    26757 1
   27866    26755    26756 1
   27867    26755    26763 1
   27868    26756    26757 1
   27869    26756    26764 1
   27870    26757    26758 1
   27871    26758    26759 1
   27872    26758    26762 1
   27873    26759    26760 1
   27874    26760    26761 1
   27875    26761    26762 1
   27876    26762    26763 1
   27877    26763    26867 1
   27878    26765    26766 1
   27879    26765    26781 1
   27880    26765    26782 1
   27881    26766    26767 1
   27882    26766    26773 1
   27883    26766    26783 1
   27884    26767    26768 1
   27885    26767    26784 1
   27886    26767    26785 1
   27887    26768    26769 1
   27888    26768    26786 1
   27889    26768    26787 1
   27890    26769    26770 1
   27891    26769    26788 1
   27892    26769    26789 1
   27893    26770    26771 1
   27894    26770    26790 1
   27895    26770    26791 1
   27896    26771    26772 1
   27897    26771    26792 1
   27898    26771    26793 1
   27899    26772    26794 1
   27900    26772    26795 1
   27901    26772    26796 1
   27902    26773    26774 1
   27903    26773    26797 1
   27904    26773    26798 1
   27905    26774    26775 1
   27906    26774    26799 1
   27907    26774    26800 1
   27908    26775    26776 1
   27909    26775    26801 1
   27910    26775    26802 1
   27911    26776    26777 1
   27912    26776    26803 1
   27913    26776    26804 1
   27914    26777    26778 1
   27915    26777    26805 1
   27916    26777    26806 1
   27917    26778    26779 1
   27918    26778    26807 1
   27919    26778    26808 1
   27920    26779    26780 1
   27921    26779    26809 1
   27922    26779    26810 1
   27923    26780    26811 1
   27924    26780    26812 1
   27925    26780    26813 1
   27926    26814    26815 1
   27927    26814    26830 1
   27928    26814    26831 1
   27929    26815    26816 1
   27930    26815    26822 1
   27931    26815    26832 1
   27932    26816    26817 1
   27933    26816    26833 1
   27934    26816    26834 1
   27935    26817    26818 1
   27936    26817    26835 1
   27937    26817    26836 1
   27938    26818    26819 1
   27939    26818    26837 1
   27940    26818    26838 1
   27941    26819    26820 1
   27942    26819    26839 1
   27943    26819    26840 1
   27944    26820    26821 1
   27945    26820    26841 1
   27946    26820    26842 1
   27947    26821    26843 1
   27948    26821    26844 1
   27949    26821    26845 1
   27950    26822    26823 1
   27951    26822    26846 1
   27952    26822    26847 1
   27953    26823    26824 1
   27954    26823    26848 1
   27955    26823    26849 1
   27956    26824    26825 1
   27957    26824    26850 1
   27958    26824    26851 1
   27959    26825    26826 1
   27960    26825    26852 1
   27961    26825    26853 1
   27962    26826    26827 1
   27963    26826    26854 1
   27964    26826    26855 1
   27965    26827    26828 1
   27966    26827    26856 1
   27967    26827    26857 1
   27968    26828    26829 1
   27969    26828    26858 1
   27970    26828    26859 1
   27971    26829    26860 1
   27972    26829    26861 1
   27973    26829    26862 1
   27974    26863    26864 1
   27975    26863    26870 1
   27976    26863    26886 1
   27977    26863    26935 1
   27978    26864    26865 1
   27979    26864    26868 1
   27980    26865    26866 1
   27981    26865    26869 1
   27982    26866    26867 1
   27983    26867    26868 1
   27984    26868    26874 1
   27985    26869    26870 1
   27986    26869    26873 1
   27987    26870    26871 1
   27988    26871    26872 1
   27989    26871    26875 1
   27990    26872    26873 1
   27991    26872    26878 1
   27992    26876    26877 1
   27993    26876    26884 1
   27994    26877    26878 1
   27995    26877    26885 1
   27996    26878    26879 1
   27997    26879    26880 1
   27998    26879    26883 1
   27999    26880    26881 1
   28000    26881    26882 1
   28001    26882    26883 1
   28002    26883    26884 1
   28003    26884    26988 1
   28004    26886    26887 1
   28005    26886    26902 1
   28006    26886    26903 1
   28007    26887    26888 1
   28008    26887    26894 1
   28009    26887    26904 1
   28010    26888    26889 1
   28011    26888    26905 1
   28012    26888    26906 1
   28013    26889    26890 1
   28014    26889    26907 1
   28015    26889    26908 1
   28016    26890    26891 1
   28017    26890    26909 1
   28018    26890    26910 1
   28019    26891    26892 1
   28020    26891    26911 1
   28021    26891    26912 1
   28022    26892    26893 1
   28023    26892    26913 1
   28024    26892    26914 1
   28025    26893    26915 1
   28026    26893    26916 1
   28027    26893    26917 1
   28028    26894    26895 1
   28029    26894    26918 1
   28030    26894    26919 1
   28031    26895    26896 1
   28032    26895    26920 1
   28033    26895    26921 1
   28034    26896    26897 1
   28035    26896    26922 1
   28036    26896    26923 1
   28037    26897    26898 1
   28038    26897    26924 1
   28039    26897    26925 1
   28040    26898    26899 1
   28041    26898    26926 1
   28042    26898    26927 1
   28043    26899    26900 1
   28044    26899    26928 1
   28045    26899    26929 1
   28046    26900    26901 1
   28047    26900    26930 1
   28048    26900    26931 1
   28049    26901    26932 1
   28050    26901    26933 1
   28051    26901    26934 1
   28052    26935    26936 1
   28053    26935    26951 1
   28054    26935    26952 1
   28055    26936    26937 1
   28056    26936    26943 1
   28057    26936    26953 1
   28058    26937    26938 1
   28059    26937    26954 1
   28060    26937    26955 1
   28061    26938    26939 1
   28062    26938    26956 1
   28063    26938    26957 1
   28064    26939    26940 1
   28065    26939    26958 1
   28066    26939    26959 1
   28067    26940    26941 1
   28068    26940    26960 1
   28069    26940    26961 1
   28070    26941    26942 1
   28071    26941    26962 1
   28072    26941    26963 1
   28073    26942    26964 1
   28074    26942    26965 1
   28075    26942    26966 1
   28076    26943    26944 1
   28077    26943    26967 1
   28078    26943    26968 1
   28079    26944    26945 1
   28080    26944    26969 1
   28081    26944    26970 1
   28082    26945    26946 1
   28083    26945    26971 1
   28084    26945    26972 1
   28085    26946    26947 1
   28086    26946    26973 1
   28087    26946    26974 1
   28088    26947    26948 1
   28089    26947    26975 1
   28090    26947    26976 1
   28091    26948    26949 1
   28092    26948    26977 1
   28093    26948    26978 1
   28094    26949    26950 1
   28095    26949    26979 1
   28096    26949    26980 1
   28097    26950    26981 1
   28098    26950    26982 1
   28099    26950    26983 1
   28100    26984    26985 1
   28101    26984    26991 1
   28102    26984    27007 1
   28103    26984    27056 1
   28104    26985    26986 1
   28105    26985    26989 1
   28106    26986    26987 1
   28107    26986    26990 1
   28108    26987    26988 1
   28109    26988    26989 1
   28110    26989    26995 1
   28111    26990    26991 1
   28112    26990    26994 1
   28113    26991    26992 1
   28114    26992    26993 1
   28115    26992    26996 1
   28116    26993    26994 1
   28117    26993    26999 1
   28118    26997    26998 1
   28119    26997    27005 1
   28120    26998    26999 1
   28121    26998    27006 1
   28122    26999    27000 1
   28123    27000    27001 1
   28124    27000    27004 1
   28125    27001    27002 1
   28126    27002    27003 1
   28127    27003    27004 1
   28128    27004    27005 1
   28129    27005    27109 1
   28130    27007    27008 1
   28131    27007    27023 1
   28132    27007    27024 1
   28133    27008    27009 1
   28134    27008    27015 1
   28135    27008    27025 1
   28136    27009    27010 1
   28137    27009    27026 1
   28138    27009    27027 1
   28139    27010    27011 1
   28140    27010    27028 1
   28141    27010    27029 1
   28142    27011    27012 1
   28143    27011    27030 1
   28144    27011    27031 1
   28145    27012    27013 1
   28146    27012    27032 1
   28147    27012    27033 1
   28148    27013    27014 1
   28149    27013    27034 1
   28150    27013    27035 1
   28151    27014    27036 1
   28152    27014    27037 1
   28153    27014    27038 1
   28154    27015    27016 1
   28155    27015    27039 1
   28156    27015    27040 1
   28157    27016    27017 1
   28158    27016    27041 1
   28159    27016    27042 1
   28160    27017    27018 1
   28161    27017    27043 1
   28162    27017    27044 1
   28163    27018    27019 1
   28164    27018    27045 1
   28165    27018    27046 1
   28166    27019    27020 1
   28167    27019    27047 1
   28168    27019    27048 1
   28169    27020    27021 1
   28170    27020    27049 1
   28171    27020    27050 1
   28172    27021    27022 1
   28173    27021    27051 1
   28174    27021    27052 1
   28175    27022    27053 1
   28176    27022    27054 1
   28177    27022    27055 1
   28178    27056    27057 1
   28179    27056    27072 1
   28180    27056    27073 1
   28181    27057    27058 1
   28182    27057    27064 1
   28183    27057    27074 1
   28184    27058    27059 1
   28185    27058    27075 1
   28186    27058    27076 1
   28187    27059    27060 1
   28188    27059    27077 1
   28189    27059    27078 1
   28190    27060    27061 1
   28191    27060    27079 1
   28192    27060    27080 1
   28193    27061    27062 1
   28194    27061    27081 1
   28195    27061    27082 1
   28196    27062    27063 1
   28197    27062    27083 1
   28198    27062    27084 1
   28199    27063    27085 1
   28200    27063    27086 1
   28201    27063    27087 1
   28202    27064    27065 1
   28203    27064    27088 1
   28204    27064    27089 1
   28205    27065    27066 1
   28206    27065    27090 1
   28207    27065    27091 1
   28208    27066    27067 1
   28209    27066    27092 1
   28210    27066    27093 1
   28211    27067    27068 1
   28212    27067    27094 1
   28213    27067    27095 1
   28214    27068    27069 1
   28215    27068    27096 1
   28216    27068    27097 1
   28217    27069    27070 1
   28218    27069    27098 1
   28219    27069    27099 1
   28220    27070    27071 1
   28221    27070    27100 1
   28222    27070    27101 1
   28223    27071    27102 1
   28224    27071    27103 1
   28225    27071    27104 1
   28226    27105    27106 1
   28227    27105    27112 1
   28228    27105    27128 1
   28229    27105    27177 1
   28230    27106    27107 1
   28231    27106    27110 1
   28232    27107    27108 1
   28233    27107    27111 1
   28234    27108    27109 1
   28235    27109    27110 1
   28236    27110    27116 1
   28237    27111    27112 1
   28238    27111    27115 1
   28239    27112    27113 1
   28240    27113    27114 1
   28241    27113    27117 1
   28242    27114    27115 1
   28243    27114    27120 1
   28244    27118    27119 1
   28245    27118    27126 1
   28246    27119    27120 1
   28247    27119    27127 1
   28248    27120    27121 1
   28249    27121    27122 1
   28250    27121    27125 1
   28251    27122    27123 1
   28252    27123    27124 1
   28253    27124    27125 1
   28254    27125    27126 1
   28255    27126    27230 1
   28256    27128    27129 1
   28257    27128    27144 1
   28258    27128    27145 1
   28259    27129    27130 1
   28260    27129    27136 1
   28261    27129    27146 1
   28262    27130    27131 1
   28263    27130    27147 1
   28264    27130    27148 1
   28265    27131    27132 1
   28266    27131    27149 1
   28267    27131    27150 1
   28268    27132    27133 1
   28269    27132    27151 1
   28270    27132    27152 1
   28271    27133    27134 1
   28272    27133    27153 1
   28273    27133    27154 1
   28274    27134    27135 1
   28275    27134    27155 1
   28276    27134    27156 1
   28277    27135    27157 1
   28278    27135    27158 1
   28279    27135    27159 1
   28280    27136    27137 1
   28281    27136    27160 1
   28282    27136    27161 1
   28283    27137    27138 1
   28284    27137    27162 1
   28285    27137    27163 1
   28286    27138    27139 1
   28287    27138    27164 1
   28288    27138    27165 1
   28289    27139    27140 1
   28290    27139    27166 1
   28291    27139    27167 1
   28292    27140    27141 1
   28293    27140    27168 1
   28294    27140    27169 1
   28295    27141    27142 1
   28296    27141    27170 1
   28297    27141    27171 1
   28298    27142    27143 1
   28299    27142    27172 1
   28300    27142    27173 1
   28301    27143    27174 1
   28302    27143    27175 1
   28303    27143    27176 1
   28304    27177    27178 1
   28305    27177    27193 1
   28306    27177    27194 1
   28307    27178    27179 1
   28308    27178    27185 1
   28309    27178    27195 1
   28310    27179    27180 1
   28311    27179    27196 1
   28312    27179    27197 1
   28313    27180    27181 1
   28314    27180    27198 1
   28315    27180    27199 1
   28316    27181    27182 1
   28317    27181    27200 1
   28318    27181    27201 1
   28319    27182    27183 1
   28320    27182    27202 1
   28321    27182    27203 1
   28322    27183    27184 1
   28323    27183    27204 1
   28324    27183    27205 1
   28325    27184    27206 1
   28326    27184    27207 1
   28327    27184    27208 1
   28328    27185    27186 1
   28329    27185    27209 1
   28330    27185    27210 1
   28331    27186    27187 1
   28332    27186    27211 1
   28333    27186    27212 1
   28334    27187    27188 1
   28335    27187    27213 1
   28336    27187    27214 1
   28337    27188    27189 1
   28338    27188    27215 1
   28339    27188    27216 1
   28340    27189    27190 1
   28341    27189    27217 1
   28342    27189    27218 1
   28343    27190    27191 1
   28344    27190    27219 1
   28345    27190    27220 1
   28346    27191    27192 1
   28347    27191    27221 1
   28348    27191    27222 1
   28349    27192    27223 1
   28350    27192    27224 1
   28351    27192    27225 1
   28352    27226    27227 1
   28353    27226    27233 1
   28354    27226    27249 1
   28355    27226    27298 1
   28356    27227    27228 1
   28357    27227    27231 1
   28358    27228    27229 1
   28359    27228    27232 1
   28360    27229    27230 1
   28361    27230    27231 1
   28362    27231    27237 1
   28363    27232    27233 1
   28364    27232    27236 1
   28365    27233    27234 1
   28366    27234    27235 1
   28367    27234    27238 1
   28368    27235    27236 1
   28369    27235    27241 1
   28370    27239    27240 1
   28371    27239    27247 1
   28372    27240    27241 1
   28373    27240    27248 1
   28374    27241    27242 1
   28375    27242    27243 1
   28376    27242    27246 1
   28377    27243    27244 1
   28378    27244    27245 1
   28379    27245    27246 1
   28380    27246    27247 1
   28381    27247    27351 1
   28382    27249    27250 1
   28383    27249    27265 1
   28384    27249    27266 1
   28385    27250    27251 1
   28386    27250    27257 1
   28387    27250    27267 1
   28388    27251    27252 1
   28389    27251    27268 1
   28390    27251    27269 1
   28391    27252    27253 1
   28392    27252    27270 1
   28393    27252    27271 1
   28394    27253    27254 1
   28395    27253    27272 1
   28396    27253    27273 1
   28397    27254    27255 1
   28398    27254    27274 1
   28399    27254    27275 1
   28400    27255    27256 1
   28401    27255    27276 1
   28402    27255    27277 1
   28403    27256    27278 1
   28404    27256    27279 1
   28405    27256    27280 1
   28406    27257    27258 1
   28407    27257    27281 1
   28408    27257    27282 1
   28409    27258    27259 1
   28410    27258    27283 1
   28411    27258    27284 1
   28412    27259    27260 1
   28413    27259    27285 1
   28414    27259    27286 1
   28415    27260    27261 1
   28416    27260    27287 1
   28417    27260    27288 1
   28418    27261    27262 1
   28419    27261    27289 1
   28420    27261    27290 1
   28421    27262    27263 1
   28422    27262    27291 1
   28423    27262    27292 1
   28424    27263    27264 1
   28425    27263    27293 1
   28426    27263    27294 1
   28427    27264    27295 1
   28428    27264    27296 1
   28429    27264    27297 1
   28430    27298    27299 1
   28431    27298    27314 1
   28432    27298    27315 1
   28433    27299    27300 1
   28434    27299    27306 1
   28435    27299    27316 1
   28436    27300    27301 1
   28437    27300    27317 1
   28438    27300    27318 1
   28439    27301    27302 1
   28440    27301    27319 1
   28441    27301    27320 1
   28442    27302    27303 1
   28443    27302    27321 1
   28444    27302    27322 1
   28445    27303    27304 1
   28446    27303    27323 1
   28447    27303    27324 1
   28448    27304    27305 1
   28449    27304    27325 1
   28450    27304    27326 1
   28451    27305    27327 1
   28452    27305    27328 1
   28453    27305    27329 1
   28454    27306    27307 1
   28455    27306    27330 1
   28456    27306    27331 1
   28457    27307    27308 1
   28458    27307    27332 1
   28459    27307    27333 1
   28460    27308    27309 1
   28461    27308    27334 1
   28462    27308    27335 1
   28463    27309    27310 1
   28464    27309    27336 1
   28465    27309    27337 1
   28466    27310    27311 1
   28467    27310    27338 1
   28468    27310    27339 1
   28469    27311    27312 1
   28470    27311    27340 1
   28471    27311    27341 1
   28472    27312    27313 1
   28473    27312    27342 1
   28474    27312    27343 1
   28475    27313    27344 1
   28476    27313    27345 1
   28477    27313    27346 1
   28478    27347    27348 1
   28479    27347    27354 1
   28480    27347    27370 1
   28481    27347    27419 1
   28482    27348    27349 1
   28483    27348    27352 1
   28484    27349    27350 1
   28485    27349    27353 1
   28486    27350    27351 1
   28487    27351    27352 1
   28488    27352    27358 1
   28489    27353    27354 1
   28490    27353    27357 1
   28491    27354    27355 1
   28492    27355    27356 1
   28493    27355    27359 1
   28494    27356    27357 1
   28495    27356    27362 1
   28496    27360    27361 1
   28497    27360    27368 1
   28498    27361    27362 1
   28499    27361    27369 1
   28500    27362    27363 1
   28501    27363    27364 1
   28502    27363    27367 1
   28503    27364    27365 1
   28504    27365    27366 1
   28505    27366    27367 1
   28506    27367    27368 1
   28507    27368    27472 1
   28508    27370    27371 1
   28509    27370    27386 1
   28510    27370    27387 1
   28511    27371    27372 1
   28512    27371    27378 1
   28513    27371    27388 1
   28514    27372    27373 1
   28515    27372    27389 1
   28516    27372    27390 1
   28517    27373    27374 1
   28518    27373    27391 1
   28519    27373    27392 1
   28520    27374    27375 1
   28521    27374    27393 1
   28522    27374    27394 1
   28523    27375    27376 1
   28524    27375    27395 1
   28525    27375    27396 1
   28526    27376    27377 1
   28527    27376    27397 1
   28528    27376    27398 1
   28529    27377    27399 1
   28530    27377    27400 1
   28531    27377    27401 1
   28532    27378    27379 1
   28533    27378    27402 1
   28534    27378    27403 1
   28535    27379    27380 1
   28536    27379    27404 1
   28537    27379    27405 1
   28538    27380    27381 1
   28539    27380    27406 1
   28540    27380    27407 1
   28541    27381    27382 1
   28542    27381    27408 1
   28543    27381    27409 1
   28544    27382    27383 1
   28545    27382    27410 1
   28546    27382    27411 1
   28547    27383    27384 1
   28548    27383    27412 1
   28549    27383    27413 1
   28550    27384    27385 1
   28551    27384    27414 1
   28552    27384    27415 1
   28553    27385    27416 1
   28554    27385    27417 1
   28555    27385    27418 1
   28556    27419    27420 1
   28557    27419    27435 1
   28558    27419    27436 1
   28559    27420    27421 1
   28560    27420    27427 1
   28561    27420    27437 1
   28562    27421    27422 1
   28563    27421    27438 1
   28564    27421    27439 1
   28565    27422    27423 1
   28566    27422    27440 1
   28567    27422    27441 1
   28568    27423    27424 1
   28569    27423    27442 1
   28570    27423    27443 1
   28571    27424    27425 1
   28572    27424    27444 1
   28573    27424    27445 1
   28574    27425    27426 1
   28575    27425    27446 1
   28576    27425    27447 1
   28577    27426    27448 1
   28578    27426    27449 1
   28579    27426    27450 1
   28580    27427    27428 1
   28581    27427    27451 1
   28582    27427    27452 1
   28583    27428    27429 1
   28584    27428    27453 1
   28585    27428    27454 1
   28586    27429    27430 1
   28587    27429    27455 1
   28588    27429    27456 1
   28589    27430    27431 1
   28590    27430    27457 1
   28591    27430    27458 1
   28592    27431    27432 1
   28593    27431    27459 1
   28594    27431    27460 1
   28595    27432    27433 1
   28596    27432    27461 1
   28597    27432    27462 1
   28598    27433    27434 1
   28599    27433    27463 1
   28600    27433    27464 1
   28601    27434    27465 1
   28602    27434    27466 1
   28603    27434    27467 1
   28604    27468    27469 1
   28605    27468    27475 1
   28606    27468    27491 1
   28607    27468    27540 1
   28608    27469    27470 1
   28609    27469    27473 1
   28610    27470    27471 1
   28611    27470    27474 1
   28612    27471    27472 1
   28613    27472    27473 1
   28614    27473    27479 1
   28615    27474    27475 1
   28616    27474    27478 1
   28617    27475    27476 1
   28618    27476    27477 1
   28619    27476    27480 1
   28620    27477    27478 1
   28621    27477    27483 1
   28622    27481    27482 1
   28623    27481    27489 1
   28624    27482    27483 1
   28625    27482    27490 1
   28626    27483    27484 1
   28627    27484    27485 1
   28628    27484    27488 1
   28629    27485    27486 1
   28630    27486    27487 1
   28631    27487    27488 1
   28632    27488    27489 1
   28633    27489    27593 1
   28634    27491    27492 1
   28635    27491    27507 1
   28636    27491    27508 1
   28637    27492    27493 1
   28638    27492    27499 1
   28639    27492    27509 1
   28640    27493    27494 1
   28641    27493    27510 1
   28642    27493    27511 1
   28643    27494    27495 1
   28644    27494    27512 1
   28645    27494    27513 1
   28646    27495    27496 1
   28647    27495    27514 1
   28648    27495    27515 1
   28649    27496    27497 1
   28650    27496    27516 1
   28651    27496    27517 1
   28652    27497    27498 1
   28653    27497    27518 1
   28654    27497    27519 1
   28655    27498    27520 1
   28656    27498    27521 1
   28657    27498    27522 1
   28658    27499    27500 1
   28659    27499    27523 1
   28660    27499    27524 1
   28661    27500    27501 1
   28662    27500    27525 1
   28663    27500    27526 1
   28664    27501    27502 1
   28665    27501    27527 1
   28666    27501    27528 1
   28667    27502    27503 1
   28668    27502    27529 1
   28669    27502    27530 1
   28670    27503    27504 1
   28671    27503    27531 1
   28672    27503    27532 1
   28673    27504    27505 1
   28674    27504    27533 1
   28675    27504    27534 1
   28676    27505    27506 1
   28677    27505    27535 1
   28678    27505    27536 1
   28679    27506    27537 1
   28680    27506    27538 1
   28681    27506    27539 1
   28682    27540    27541 1
   28683    27540    27556 1
   28684    27540    27557 1
   28685    27541    27542 1
   28686    27541    27548 1
   28687    27541    27558 1
   28688    27542    27543 1
   28689    27542    27559 1
   28690    27542    27560 1
   28691    27543    27544 1
   28692    27543    27561 1
   28693    27543    27562 1
   28694    27544    27545 1
   28695    27544    27563 1
   28696    27544    27564 1
   28697    27545    27546 1
   28698    27545    27565 1
   28699    27545    27566 1
   28700    27546    27547 1
   28701    27546    27567 1
   28702    27546    27568 1
   28703    27547    27569 1
   28704    27547    27570 1
   28705    27547    27571 1
   28706    27548    27549 1
   28707    27548    27572 1
   28708    27548    27573 1
   28709    27549    27550 1
   28710    27549    27574 1
   28711    27549    27575 1
   28712    27550    27551 1
   28713    27550    27576 1
   28714    27550    27577 1
   28715    27551    27552 1
   28716    27551    27578 1
   28717    27551    27579 1
   28718    27552    27553 1
   28719    27552    27580 1
   28720    27552    27581 1
   28721    27553    27554 1
   28722    27553    27582 1
   28723    27553    27583 1
   28724    27554    27555 1
   28725    27554    27584 1
   28726    27554    27585 1
   28727    27555    27586 1
   28728    27555    27587 1
   28729    27555    27588 1
   28730    27589    27590 1
   28731    27589    27596 1
   28732    27589    27612 1
   28733    27589    27661 1
   28734    27590    27591 1
   28735    27590    27594 1
   28736    27591    27592 1
   28737    27591    27595 1
   28738    27592    27593 1
   28739    27593    27594 1
   28740    27594    27600 1
   28741    27595    27596 1
   28742    27595    27599 1
   28743    27596    27597 1
   28744    27597    27598 1
   28745    27597    27601 1
   28746    27598    27599 1
   28747    27598    27604 1
   28748    27602    27603 1
   28749    27602    27610 1
   28750    27603    27604 1
   28751    27603    27611 1
   28752    27604    27605 1
   28753    27605    27606 1
   28754    27605    27609 1
   28755    27606    27607 1
   28756    27607    27608 1
   28757    27608    27609 1
   28758    27609    27610 1
   28759    27610    27714 1
   28760    27612    27613 1
   28761    27612    27628 1
   28762    27612    27629 1
   28763    27613    27614 1
   28764    27613    27620 1
   28765    27613    27630 1
   28766    27614    27615 1
   28767    27614    27631 1
   28768    27614    27632 1
   28769    27615    27616 1
   28770    27615    27633 1
   28771    27615    27634 1
   28772    27616    27617 1
   28773    27616    27635 1
   28774    27616    27636 1
   28775    27617    27618 1
   28776    27617    27637 1
   28777    27617    27638 1
   28778    27618    27619 1
   28779    27618    27639 1
   28780    27618    27640 1
   28781    27619    27641 1
   28782    27619    27642 1
   28783    27619    27643 1
   28784    27620    27621 1
   28785    27620    27644 1
   28786    27620    27645 1
   28787    27621    27622 1
   28788    27621    27646 1
   28789    27621    27647 1
   28790    27622    27623 1
   28791    27622    27648 1
   28792    27622    27649 1
   28793    27623    27624 1
   28794    27623    27650 1
   28795    27623    27651 1
   28796    27624    27625 1
   28797    27624    27652 1
   28798    27624    27653 1
   28799    27625    27626 1
   28800    27625    27654 1
   28801    27625    27655 1
   28802    27626    27627 1
   28803    27626    27656 1
   28804    27626    27657 1
   28805    27627    27658 1
   28806    27627    27659 1
   28807    27627    27660 1
   28808    27661    27662 1
   28809    27661    27677 1
   28810    27661    27678 1
   28811    27662    27663 1
   28812    27662    27669 1
   28813    27662    27679 1
   28814    27663    27664 1
   28815    27663    27680 1
   28816    27663    27681 1
   28817    27664    27665 1
   28818    27664    27682 1
   28819    27664    27683 1
   28820    27665    27666 1
   28821    27665    27684 1
   28822    27665    27685 1
   28823    27666    27667 1
   28824    27666    27686 1
   28825    27666    27687 1
   28826    27667    27668 1
   28827    27667    27688 1
   28828    27667    27689 1
   28829    27668    27690 1
   28830    27668    27691 1
   28831    27668    27692 1
   28832    27669    27670 1
   28833    27669    27693 1
   28834    27669    27694 1
   28835    27670    27671 1
   28836    27670    27695 1
   28837    27670    27696 1
   28838    27671    27672 1
   28839    27671    27697 1
   28840    27671    27698 1
   28841    27672    27673 1
   28842    27672    27699 1
   28843    27672    27700 1
   28844    27673    27674 1
   28845    27673    27701 1
   28846    27673    27702 1
   28847    27674    27675 1
   28848    27674    27703 1
   28849    27674    27704 1
   28850    27675    27676 1
   28851    27675    27705 1
   28852    27675    27706 1
   28853    27676    27707 1
   28854    27676    27708 1
   28855    27676    27709 1
   28856    27710    27711 1
   28857    27710    27717 1
   28858    27710    27733 1
   28859    27710    27782 1
   28860    27711    27712 1
   28861    27711    27715 1
   28862    27712    27713 1
   28863    27712    27716 1
   28864    27713    27714 1
   28865    27714    27715 1
   28866    27715    27721 1
   28867    27716    27717 1
   28868    27716    27720 1
   28869    27717    27718 1
   28870    27718    27719 1
   28871    27718    27722 1
   28872    27719    27720 1
   28873    27719    27725 1
   28874    27723    27724 1
   28875    27723    27731 1
   28876    27724    27725 1
   28877    27724    27732 1
   28878    27725    27726 1
   28879    27726    27727 1
   28880    27726    27730 1
   28881    27727    27728 1
   28882    27728    27729 1
   28883    27729    27730 1
   28884    27730    27731 1
   28885    27731    27835 1
   28886    27733    27734 1
   28887    27733    27749 1
   28888    27733    27750 1
   28889    27734    27735 1
   28890    27734    27741 1
   28891    27734    27751 1
   28892    27735    27736 1
   28893    27735    27752 1
   28894    27735    27753 1
   28895    27736    27737 1
   28896    27736    27754 1
   28897    27736    27755 1
   28898    27737    27738 1
   28899    27737    27756 1
   28900    27737    27757 1
   28901    27738    27739 1
   28902    27738    27758 1
   28903    27738    27759 1
   28904    27739    27740 1
   28905    27739    27760 1
   28906    27739    27761 1
   28907    27740    27762 1
   28908    27740    27763 1
   28909    27740    27764 1
   28910    27741    27742 1
   28911    27741    27765 1
   28912    27741    27766 1
   28913    27742    27743 1
   28914    27742    27767 1
   28915    27742    27768 1
   28916    27743    27744 1
   28917    27743    27769 1
   28918    27743    27770 1
   28919    27744    27745 1
   28920    27744    27771 1
   28921    27744    27772 1
   28922    27745    27746 1
   28923    27745    27773 1
   28924    27745    27774 1
   28925    27746    27747 1
   28926    27746    27775 1
   28927    27746    27776 1
   28928    27747    27748 1
   28929    27747    27777 1
   28930    27747    27778 1
   28931    27748    27779 1
   28932    27748    27780 1
   28933    27748    27781 1
   28934    27782    27783 1
   28935    27782    27798 1
   28936    27782    27799 1
   28937    27783    27784 1
   28938    27783    27790 1
   28939    27783    27800 1
   28940    27784    27785 1
   28941    27784    27801 1
   28942    27784    27802 1
   28943    27785    27786 1
   28944    27785    27803 1
   28945    27785    27804 1
   28946    27786    27787 1
   28947    27786    27805 1
   28948    27786    27806 1
   28949    27787    27788 1
   28950    27787    27807 1
   28951    27787    27808 1
   28952    27788    27789 1
   28953    27788    27809 1
   28954    27788    27810 1
   28955    27789    27811 1
   28956    27789    27812 1
   28957    27789    27813 1
   28958    27790    27791 1
   28959    27790    27814 1
   28960    27790    27815 1
   28961    27791    27792 1
   28962    27791    27816 1
   28963    27791    27817 1
   28964    27792    27793 1
   28965    27792    27818 1
   28966    27792    27819 1
   28967    27793    27794 1
   28968    27793    27820 1
   28969    27793    27821 1
   28970    27794    27795 1
   28971    27794    27822 1
   28972    27794    27823 1
   28973    27795    27796 1
   28974    27795    27824 1
   28975    27795    27825 1
   28976    27796    27797 1
   28977    27796    27826 1
   28978    27796    27827 1
   28979    27797    27828 1
   28980    27797    27829 1
   28981    27797    27830 1
   28982    27831    27832 1
   28983    27831    27838 1
   28984    27831    27854 1
   28985    27831    27903 1
   28986    27832    27833 1
   28987    27832    27836 1
   28988    27833    27834 1
   28989    27833    27837 1
   28990    27834    27835 1
   28991    27835    27836 1
   28992    27836    27842 1
   28993    27837    27838 1
   28994    27837    27841 1
   28995    27838    27839 1
   28996    27839    27840 1
   28997    27839    27843 1
   28998    27840    27841 1
   28999    27840    27846 1
   29000    27844    27845 1
   29001    27844    27852 1
   29002    27845    27846 1
   29003    27845    27853 1
   29004    27846    27847 1
   29005    27847    27848 1
   29006    27847    27851 1
   29007    27848    27849 1
   29008    27849    27850 1
   29009    27850    27851 1
   29010    27851    27852 1
   29011    27852    27956 1
   29012    27854    27855 1
   29013    27854    27870 1
   29014    27854    27871 1
   29015    27855    27856 1
   29016    27855    27862 1
   29017    27855    27872 1
   29018    27856    27857 1
   29019    27856    27873 1
   29020    27856    27874 1
   29021    27857    27858 1
   29022    27857    27875 1
   29023    27857    27876 1
   29024    27858    27859 1
   29025    27858    27877 1
   29026    27858    27878 1
   29027    27859    27860 1
   29028    27859    27879 1
   29029    27859    27880 1
   29030    27860    27861 1
   29031    27860    27881 1
   29032    27860    27882 1
   29033    27861    27883 1
   29034    27861    27884 1
   29035    27861    27885 1
   29036    27862    27863 1
   29037    27862    27886 1
   29038    27862    27887 1
   29039    27863    27864 1
   29040    27863    27888 1
   29041    27863    27889 1
   29042    27864    27865 1
   29043    27864    27890 1
   29044    27864    27891 1
   29045    27865    27866 1
   29046    27865    27892 1
   29047    27865    27893 1
   29048    27866    27867 1
   29049    27866    27894 1
   29050    27866    27895 1
   29051    27867    27868 1
   29052    27867    27896 1
   29053    27867    27897 1
   29054    27868    27869 1
   29055    27868    27898 1
   29056    27868    27899 1
   29057    27869    27900 1
   29058    27869    27901 1
   29059    27869    27902 1
   29060    27903    27904 1
   29061    27903    27919 1
   29062    27903    27920 1
   29063    27904    27905 1
   29064    27904    27911 1
   29065    27904    27921 1
   29066    27905    27906 1
   29067    27905    27922 1
   29068    27905    27923 1
   29069    27906    27907 1
   29070    27906    27924 1
   29071    27906    27925 1
   29072    27907    27908 1
   29073    27907    27926 1
   29074    27907    27927 1
   29075    27908    27909 1
   29076    27908    27928 1
   29077    27908    27929 1
   29078    27909    27910 1
   29079    27909    27930 1
   29080    27909    27931 1
   29081    27910    27932 1
   29082    27910    27933 1
   29083    27910    27934 1
   29084    27911    27912 1
   29085    27911    27935 1
   29086    27911    27936 1
   29087    27912    27913 1
   29088    27912    27937 1
   29089    27912    27938 1
   29090    27913    27914 1
   29091    27913    27939 1
   29092    27913    27940 1
   29093    27914    27915 1
   29094    27914    27941 1
   29095    27914    27942 1
   29096    27915    27916 1
   29097    27915    27943 1
   29098    27915    27944 1
   29099    27916    27917 1
   29100    27916    27945 1
   29101    27916    27946 1
   29102    27917    27918 1
   29103    27917    27947 1
   29104    27917    27948 1
   29105    27918    27949 1
   29106    27918    27950 1
   29107    27918    27951 1
   29108    27952    27953 1
   29109    27952    27959 1
   29110    27952    27975 1
   29111    27952    28024 1
   29112    27953    27954 1
   29113    27953    27957 1
   29114    27954    27955 1
   29115    27954    27958 1
   29116    27955    27956 1
   29117    27956    27957 1
   29118    27957    27963 1
   29119    27958    27959 1
   29120    27958    27962 1
   29121    27959    27960 1
   29122    27960    27961 1
   29123    27960    27964 1
   29124    27961    27962 1
   29125    27961    27967 1
   29126    27965    27966 1
   29127    27965    27973 1
   29128    27966    27967 1
   29129    27966    27974 1
   29130    27967    27968 1
   29131    27968    27969 1
   29132    27968    27972 1
   29133    27969    27970 1
   29134    27970    27971 1
   29135    27971    27972 1
   29136    27972    27973 1
   29137    27973    28077 1
   29138    27975    27976 1
   29139    27975    27991 1
   29140    27975    27992 1
   29141    27976    27977 1
   29142    27976    27983 1
   29143    27976    27993 1
   29144    27977    27978 1
   29145    27977    27994 1
   29146    27977    27995 1
   29147    27978    27979 1
   29148    27978    27996 1
   29149    27978    27997 1
   29150    27979    27980 1
   29151    27979    27998 1
   29152    27979    27999 1
   29153    27980    27981 1
   29154    27980    28000 1
   29155    27980    28001 1
   29156    27981    27982 1
   29157    27981    28002 1
   29158    27981    28003 1
   29159    27982    28004 1
   29160    27982    28005 1
   29161    27982    28006 1
   29162    27983    27984 1
   29163    27983    28007 1
   29164    27983    28008 1
   29165    27984    27985 1
   29166    27984    28009 1
   29167    27984    28010 1
   29168    27985    27986 1
   29169    27985    28011 1
   29170    27985    28012 1
   29171    27986    27987 1
   29172    27986    28013 1
   29173    27986    28014 1
   29174    27987    27988 1
   29175    27987    28015 1
   29176    27987    28016 1
   29177    27988    27989 1
   29178    27988    28017 1
   29179    27988    28018 1
   29180    27989    27990 1
   29181    27989    28019 1
   29182    27989    28020 1
   29183    27990    28021 1
   29184    27990    28022 1
   29185    27990    28023 1
   29186    28024    28025 1
   29187    28024    28040 1
   29188    28024    28041 1
   29189    28025    28026 1
   29190    28025    28032 1
   29191    28025    28042 1
   29192    28026    28027 1
   29193    28026    28043 1
   29194    28026    28044 1
   29195    28027    28028 1
   29196    28027    28045 1
   29197    28027    28046 1
   29198    28028    28029 1
   29199    28028    28047 1
   29200    28028    28048 1
   29201    28029    28030 1
   29202    28029    28049 1
   29203    28029    28050 1
   29204    28030    28031 1
   29205    28030    28051 1
   29206    28030    28052 1
   29207    28031    28053 1
   29208    28031    28054 1
   29209    28031    28055 1
   29210    28032    28033 1
   29211    28032    28056 1
   29212    28032    28057 1
   29213    28033    28034 1
   29214    28033    28058 1
   29215    28033    28059 1
   29216    28034    28035 1
   29217    28034    28060 1
   29218    28034    28061 1
   29219    28035    28036 1
   29220    28035    28062 1
   29221    28035    28063 1
   29222    28036    28037 1
   29223    28036    28064 1
   29224    28036    28065 1
   29225    28037    28038 1
   29226    28037    28066 1
   29227    28037    28067 1
   29228    28038    28039 1
   29229    28038    28068 1
   29230    28038    28069 1
   29231    28039    28070 1
   29232    28039    28071 1
   29233    28039    28072 1
   29234    28073    28074 1
   29235    28073    28080 1
   29236    28073    28096 1
   29237    28073    28145 1
   29238    28074    28075 1
   29239    28074    28078 1
   29240    28075    28076 1
   29241    28075    28079 1
   29242    28076    28077 1
   29243    28077    28078 1
   29244    28078    28084 1
   29245    28079    28080 1
   29246    28079    28083 1
   29247    28080    28081 1
   29248    28081    28082 1
   29249    28081    28085 1
   29250    28082    28083 1
   29251    28082    28088 1
   29252    28086    28087 1
   29253    28086    28094 1
   29254    28087    28088 1
   29255    28087    28095 1
   29256    28088    28089 1
   29257    28089    28090 1
   29258    28089    28093 1
   29259    28090    28091 1
   29260    28091    28092 1
   29261    28092    28093 1
   29262    28093    28094 1
   29263    28094    28198 1
   29264    28096    28097 1
   29265    28096    28112 1
   29266    28096    28113 1
   29267    28097    28098 1
   29268    28097    28104 1
   29269    28097    28114 1
   29270    28098    28099 1
   29271    28098    28115 1
   29272    28098    28116 1
   29273    28099    28100 1
   29274    28099    28117 1
   29275    28099    28118 1
   29276    28100    28101 1
   29277    28100    28119 1
   29278    28100    28120 1
   29279    28101    28102 1
   29280    28101    28121 1
   29281    28101    28122 1
   29282    28102    28103 1
   29283    28102    28123 1
   29284    28102    28124 1
   29285    28103    28125 1
   29286    28103    28126 1
   29287    28103    28127 1
   29288    28104    28105 1
   29289    28104    28128 1
   29290    28104    28129 1
   29291    28105    28106 1
   29292    28105    28130 1
   29293    28105    28131 1
   29294    28106    28107 1
   29295    28106    28132 1
   29296    28106    28133 1
   29297    28107    28108 1
   29298    28107    28134 1
   29299    28107    28135 1
   29300    28108    28109 1
   29301    28108    28136 1
   29302    28108    28137 1
   29303    28109    28110 1
   29304    28109    28138 1
   29305    28109    28139 1
   29306    28110    28111 1
   29307    28110    28140 1
   29308    28110    28141 1
   29309    28111    28142 1
   29310    28111    28143 1
   29311    28111    28144 1
   29312    28145    28146 1
   29313    28145    28161 1
   29314    28145    28162 1
   29315    28146    28147 1
   29316    28146    28153 1
   29317    28146    28163 1
   29318    28147    28148 1
   29319    28147    28164 1
   29320    28147    28165 1
   29321    28148    28149 1
   29322    28148    28166 1
   29323    28148    28167 1
   29324    28149    28150 1
   29325    28149    28168 1
   29326    28149    28169 1
   29327    28150    28151 1
   29328    28150    28170 1
   29329    28150    28171 1
   29330    28151    28152 1
   29331    28151    28172 1
   29332    28151    28173 1
   29333    28152    28174 1
   29334    28152    28175 1
   29335    28152    28176 1
   29336    28153    28154 1
   29337    28153    28177 1
   29338    28153    28178 1
   29339    28154    28155 1
   29340    28154    28179 1
   29341    28154    28180 1
   29342    28155    28156 1
   29343    28155    28181 1
   29344    28155    28182 1
   29345    28156    28157 1
   29346    28156    28183 1
   29347    28156    28184 1
   29348    28157    28158 1
   29349    28157    28185 1
   29350    28157    28186 1
   29351    28158    28159 1
   29352    28158    28187 1
   29353    28158    28188 1
   29354    28159    28160 1
   29355    28159    28189 1
   29356    28159    28190 1
   29357    28160    28191 1
   29358    28160    28192 1
   29359    28160    28193 1
   29360    28194    28195 1
   29361    28194    28201 1
   29362    28194    28217 1
   29363    28194    28266 1
   29364    28195    28196 1
   29365    28195    28199 1
   29366    28196    28197 1
   29367    28196    28200 1
   29368    28197    28198 1
   29369    28198    28199 1
   29370    28199    28205 1
   29371    28200    28201 1
   29372    28200    28204 1
   29373    28201    28202 1
   29374    28202    28203 1
   29375    28202    28206 1
   29376    28203    28204 1
   29377    28203    28209 1
   29378    28207    28208 1
   29379    28207    28215 1
   29380    28208    28209 1
   29381    28208    28216 1
   29382    28209    28210 1
   29383    28210    28211 1
   29384    28210    28214 1
   29385    28211    28212 1
   29386    28212    28213 1
   29387    28213    28214 1
   29388    28214    28215 1
   29389    28215    28319 1
   29390    28217    28218 1
   29391    28217    28233 1
   29392    28217    28234 1
   29393    28218    28219 1
   29394    28218    28225 1
   29395    28218    28235 1
   29396    28219    28220 1
   29397    28219    28236 1
   29398    28219    28237 1
   29399    28220    28221 1
   29400    28220    28238 1
   29401    28220    28239 1
   29402    28221    28222 1
   29403    28221    28240 1
   29404    28221    28241 1
   29405    28222    28223 1
   29406    28222    28242 1
   29407    28222    28243 1
   29408    28223    28224 1
   29409    28223    28244 1
   29410    28223    28245 1
   29411    28224    28246 1
   29412    28224    28247 1
   29413    28224    28248 1
   29414    28225    28226 1
   29415    28225    28249 1
   29416    28225    28250 1
   29417    28226    28227 1
   29418    28226    28251 1
   29419    28226    28252 1
   29420    28227    28228 1
   29421    28227    28253 1
   29422    28227    28254 1
   29423    28228    28229 1
   29424    28228    28255 1
   29425    28228    28256 1
   29426    28229    28230 1
   29427    28229    28257 1
   29428    28229    28258 1
   29429    28230    28231 1
   29430    28230    28259 1
   29431    28230    28260 1
   29432    28231    28232 1
   29433    28231    28261 1
   29434    28231    28262 1
   29435    28232    28263 1
   29436    28232    28264 1
   29437    28232    28265 1
   29438    28266    28267 1
   29439    28266    28282 1
   29440    28266    28283 1
   29441    28267    28268 1
   29442    28267    28274 1
   29443    28267    28284 1
   29444    28268    28269 1
   29445    28268    28285 1
   29446    28268    28286 1
   29447    28269    28270 1
   29448    28269    28287 1
   29449    28269    28288 1
   29450    28270    28271 1
   29451    28270    28289 1
   29452    28270    28290 1
   29453    28271    28272 1
   29454    28271    28291 1
   29455    28271    28292 1
   29456    28272    28273 1
   29457    28272    28293 1
   29458    28272    28294 1
   29459    28273    28295 1
   29460    28273    28296 1
   29461    28273    28297 1
   29462    28274    28275 1
   29463    28274    28298 1
   29464    28274    28299 1
   29465    28275    28276 1
   29466    28275    28300 1
   29467    28275    28301 1
   29468    28276    28277 1
   29469    28276    28302 1
   29470    28276    28303 1
   29471    28277    28278 1
   29472    28277    28304 1
   29473    28277    28305 1
   29474    28278    28279 1
   29475    28278    28306 1
   29476    28278    28307 1
   29477    28279    28280 1
   29478    28279    28308 1
   29479    28279    28309 1
   29480    28280    28281 1
   29481    28280    28310 1
   29482    28280    28311 1
   29483    28281    28312 1
   29484    28281    28313 1
   29485    28281    28314 1
   29486    28315    28316 1
   29487    28315    28322 1
   29488    28315    28338 1
   29489    28315    28387 1
   29490    28316    28317 1
   29491    28316    28320 1
   29492    28317    28318 1
   29493    28317    28321 1
   29494    28318    28319 1
   29495    28319    28320 1
   29496    28320    28326 1
   29497    28321    28322 1
   29498    28321    28325 1
   29499    28322    28323 1
   29500    28323    28324 1
   29501    28323    28327 1
   29502    28324    28325 1
   29503    28324    28330 1
   29504    28328    28329 1
   29505    28328    28336 1
   29506    28329    28330 1
   29507    28329    28337 1
   29508    28330    28331 1
   29509    28331    28332 1
   29510    28331    28335 1
   29511    28332    28333 1
   29512    28333    28334 1
   29513    28334    28335 1
   29514    28335    28336 1
   29515    28336    28440 1
   29516    28338    28339 1
   29517    28338    28354 1
   29518    28338    28355 1
   29519    28339    28340 1
   29520    28339    28346 1
   29521    28339    28356 1
   29522    28340    28341 1
   29523    28340    28357 1
   29524    28340    28358 1
   29525    28341    28342 1
   29526    28341    28359 1
   29527    28341    28360 1
   29528    28342    28343 1
   29529    28342    28361 1
   29530    28342    28362 1
   29531    28343    28344 1
   29532    28343    28363 1
   29533    28343    28364 1
   29534    28344    28345 1
   29535    28344    28365 1
   29536    28344    28366 1
   29537    28345    28367 1
   29538    28345    28368 1
   29539    28345    28369 1
   29540    28346    28347 1
   29541    28346    28370 1
   29542    28346    28371 1
   29543    28347    28348 1
   29544    28347    28372 1
   29545    28347    28373 1
   29546    28348    28349 1
   29547    28348    28374 1
   29548    28348    28375 1
   29549    28349    28350 1
   29550    28349    28376 1
   29551    28349    28377 1
   29552    28350    28351 1
   29553    28350    28378 1
   29554    28350    28379 1
   29555    28351    28352 1
   29556    28351    28380 1
   29557    28351    28381 1
   29558    28352    28353 1
   29559    28352    28382 1
   29560    28352    28383 1
   29561    28353    28384 1
   29562    28353    28385 1
   29563    28353    28386 1
   29564    28387    28388 1
   29565    28387    28403 1
   29566    28387    28404 1
   29567    28388    28389 1
   29568    28388    28395 1
   29569    28388    28405 1
   29570    28389    28390 1
   29571    28389    28406 1
   29572    28389    28407 1
   29573    28390    28391 1
   29574    28390    28408 1
   29575    28390    28409 1
   29576    28391    28392 1
   29577    28391    28410 1
   29578    28391    28411 1
   29579    28392    28393 1
   29580    28392    28412 1
   29581    28392    28413 1
   29582    28393    28394 1
   29583    28393    28414 1
   29584    28393    28415 1
   29585    28394    28416 1
   29586    28394    28417 1
   29587    28394    28418 1
   29588    28395    28396 1
   29589    28395    28419 1
   29590    28395    28420 1
   29591    28396    28397 1
   29592    28396    28421 1
   29593    28396    28422 1
   29594    28397    28398 1
   29595    28397    28423 1
   29596    28397    28424 1
   29597    28398    28399 1
   29598    28398    28425 1
   29599    28398    28426 1
   29600    28399    28400 1
   29601    28399    28427 1
   29602    28399    28428 1
   29603    28400    28401 1
   29604    28400    28429 1
   29605    28400    28430 1
   29606    28401    28402 1
   29607    28401    28431 1
   29608    28401    28432 1
   29609    28402    28433 1
   29610    28402    28434 1
   29611    28402    28435 1
   29612    28436    28437 1
   29613    28436    28443 1
   29614    28436    28459 1
   29615    28436    28508 1
   29616    28437    28438 1
   29617    28437    28441 1
   29618    28438    28439 1
   29619    28438    28442 1
   29620    28439    28440 1
   29621    28440    28441 1
   29622    28441    28447 1
   29623    28442    28443 1
   29624    28442    28446 1
   29625    28443    28444 1
   29626    28444    28445 1
   29627    28444    28448 1
   29628    28445    28446 1
   29629    28445    28451 1
   29630    28449    28450 1
   29631    28449    28457 1
   29632    28450    28451 1
   29633    28450    28458 1
   29634    28451    28452 1
   29635    28452    28453 1
   29636    28452    28456 1
   29637    28453    28454 1
   29638    28454    28455 1
   29639    28455    28456 1
   29640    28456    28457 1
   29641    28457    28561 1
   29642    28459    28460 1
   29643    28459    28475 1
   29644    28459    28476 1
   29645    28460    28461 1
   29646    28460    28467 1
   29647    28460    28477 1
   29648    28461    28462 1
   29649    28461    28478 1
   29650    28461    28479 1
   29651    28462    28463 1
   29652    28462    28480 1
   29653    28462    28481 1
   29654    28463    28464 1
   29655    28463    28482 1
   29656    28463    28483 1
   29657    28464    28465 1
   29658    28464    28484 1
   29659    28464    28485 1
   29660    28465    28466 1
   29661    28465    28486 1
   29662    28465    28487 1
   29663    28466    28488 1
   29664    28466    28489 1
   29665    28466    28490 1
   29666    28467    28468 1
   29667    28467    28491 1
   29668    28467    28492 1
   29669    28468    28469 1
   29670    28468    28493 1
   29671    28468    28494 1
   29672    28469    28470 1
   29673    28469    28495 1
   29674    28469    28496 1
   29675    28470    28471 1
   29676    28470    28497 1
   29677    28470    28498 1
   29678    28471    28472 1
   29679    28471    28499 1
   29680    28471    28500 1
   29681    28472    28473 1
   29682    28472    28501 1
   29683    28472    28502 1
   29684    28473    28474 1
   29685    28473    28503 1
   29686    28473    28504 1
   29687    28474    28505 1
   29688    28474    28506 1
   29689    28474    28507 1
   29690    28508    28509 1
   29691    28508    28524 1
   29692    28508    28525 1
   29693    28509    28510 1
   29694    28509    28516 1
   29695    28509    28526 1
   29696    28510    28511 1
   29697    28510    28527 1
   29698    28510    28528 1
   29699    28511    28512 1
   29700    28511    28529 1
   29701    28511    28530 1
   29702    28512    28513 1
   29703    28512    28531 1
   29704    28512    28532 1
   29705    28513    28514 1
   29706    28513    28533 1
   29707    28513    28534 1
   29708    28514    28515 1
   29709    28514    28535 1
   29710    28514    28536 1
   29711    28515    28537 1
   29712    28515    28538 1
   29713    28515    28539 1
   29714    28516    28517 1
   29715    28516    28540 1
   29716    28516    28541 1
   29717    28517    28518 1
   29718    28517    28542 1
   29719    28517    28543 1
   29720    28518    28519 1
   29721    28518    28544 1
   29722    28518    28545 1
   29723    28519    28520 1
   29724    28519    28546 1
   29725    28519    28547 1
   29726    28520    28521 1
   29727    28520    28548 1
   29728    28520    28549 1
   29729    28521    28522 1
   29730    28521    28550 1
   29731    28521    28551 1
   29732    28522    28523 1
   29733    28522    28552 1
   29734    28522    28553 1
   29735    28523    28554 1
   29736    28523    28555 1
   29737    28523    28556 1
   29738    28557    28558 1
   29739    28557    28564 1
   29740    28557    28580 1
   29741    28557    28629 1
   29742    28558    28559 1
   29743    28558    28562 1
   29744    28559    28560 1
   29745    28559    28563 1
   29746    28560    28561 1
   29747    28561    28562 1
   29748    28562    28568 1
   29749    28563    28564 1
   29750    28563    28567 1
   29751    28564    28565 1
   29752    28565    28566 1
   29753    28565    28569 1
   29754    28566    28567 1
   29755    28566    28572 1
   29756    28570    28571 1
   29757    28570    28578 1
   29758    28571    28572 1
   29759    28571    28579 1
   29760    28572    28573 1
   29761    28573    28574 1
   29762    28573    28577 1
   29763    28574    28575 1
   29764    28575    28576 1
   29765    28576    28577 1
   29766    28577    28578 1
   29767    28578    28682 1
   29768    28580    28581 1
   29769    28580    28596 1
   29770    28580    28597 1
   29771    28581    28582 1
   29772    28581    28588 1
   29773    28581    28598 1
   29774    28582    28583 1
   29775    28582    28599 1
   29776    28582    28600 1
   29777    28583    28584 1
   29778    28583    28601 1
   29779    28583    28602 1
   29780    28584    28585 1
   29781    28584    28603 1
   29782    28584    28604 1
   29783    28585    28586 1
   29784    28585    28605 1
   29785    28585    28606 1
   29786    28586    28587 1
   29787    28586    28607 1
   29788    28586    28608 1
   29789    28587    28609 1
   29790    28587    28610 1
   29791    28587    28611 1
   29792    28588    28589 1
   29793    28588    28612 1
   29794    28588    28613 1
   29795    28589    28590 1
   29796    28589    28614 1
   29797    28589    28615 1
   29798    28590    28591 1
   29799    28590    28616 1
   29800    28590    28617 1
   29801    28591    28592 1
   29802    28591    28618 1
   29803    28591    28619 1
   29804    28592    28593 1
   29805    28592    28620 1
   29806    28592    28621 1
   29807    28593    28594 1
   29808    28593    28622 1
   29809    28593    28623 1
   29810    28594    28595 1
   29811    28594    28624 1
   29812    28594    28625 1
   29813    28595    28626 1
   29814    28595    28627 1
   29815    28595    28628 1
   29816    28629    28630 1
   29817    28629    28645 1
   29818    28629    28646 1
   29819    28630    28631 1
   29820    28630    28637 1
   29821    28630    28647 1
   29822    28631    28632 1
   29823    28631    28648 1
   29824    28631    28649 1
   29825    28632    28633 1
   29826    28632    28650 1
   29827    28632    28651 1
   29828    28633    28634 1
   29829    28633    28652 1
   29830    28633    28653 1
   29831    28634    28635 1
   29832    28634    28654 1
   29833    28634    28655 1
   29834    28635    28636 1
   29835    28635    28656 1
   29836    28635    28657 1
   29837    28636    28658 1
   29838    28636    28659 1
   29839    28636    28660 1
   29840    28637    28638 1
   29841    28637    28661 1
   29842    28637    28662 1
   29843    28638    28639 1
   29844    28638    28663 1
   29845    28638    28664 1
   29846    28639    28640 1
   29847    28639    28665 1
   29848    28639    28666 1
   29849    28640    28641 1
   29850    28640    28667 1
   29851    28640    28668 1
   29852    28641    28642 1
   29853    28641    28669 1
   29854    28641    28670 1
   29855    28642    28643 1
   29856    28642    28671 1
   29857    28642    28672 1
   29858    28643    28644 1
   29859    28643    28673 1
   29860    28643    28674 1
   29861    28644    28675 1
   29862    28644    28676 1
   29863    28644    28677 1
   29864    28678    28679 1
   29865    28678    28685 1
   29866    28678    28701 1
   29867    28678    28750 1
   29868    28679    28680 1
   29869    28679    28683 1
   29870    28680    28681 1
   29871    28680    28684 1
   29872    28681    28682 1
   29873    28682    28683 1
   29874    28683    28689 1
   29875    28684    28685 1
   29876    28684    28688 1
   29877    28685    28686 1
   29878    28686    28687 1
   29879    28686    28690 1
   29880    28687    28688 1
   29881    28687    28693 1
   29882    28691    28692 1
   29883    28691    28699 1
   29884    28692    28693 1
   29885    28692    28700 1
   29886    28693    28694 1
   29887    28694    28695 1
   29888    28694    28698 1
   29889    28695    28696 1
   29890    28696    28697 1
   29891    28697    28698 1
   29892    28698    28699 1
   29893    28699    28803 1
   29894    28701    28702 1
   29895    28701    28717 1
   29896    28701    28718 1
   29897    28702    28703 1
   29898    28702    28709 1
   29899    28702    28719 1
   29900    28703    28704 1
   29901    28703    28720 1
   29902    28703    28721 1
   29903    28704    28705 1
   29904    28704    28722 1
   29905    28704    28723 1
   29906    28705    28706 1
   29907    28705    28724 1
   29908    28705    28725 1
   29909    28706    28707 1
   29910    28706    28726 1
   29911    28706    28727 1
   29912    28707    28708 1
   29913    28707    28728 1
   29914    28707    28729 1
   29915    28708    28730 1
   29916    28708    28731 1
   29917    28708    28732 1
   29918    28709    28710 1
   29919    28709    28733 1
   29920    28709    28734 1
   29921    28710    28711 1
   29922    28710    28735 1
   29923    28710    28736 1
   29924    28711    28712 1
   29925    28711    28737 1
   29926    28711    28738 1
   29927    28712    28713 1
   29928    28712    28739 1
   29929    28712    28740 1
   29930    28713    28714 1
   29931    28713    28741 1
   29932    28713    28742 1
   29933    28714    28715 1
   29934    28714    28743 1
   29935    28714    28744 1
   29936    28715    28716 1
   29937    28715    28745 1
   29938    28715    28746 1
   29939    28716    28747 1
   29940    28716    28748 1
   29941    28716    28749 1
   29942    28750    28751 1
   29943    28750    28766 1
   29944    28750    28767 1
   29945    28751    28752 1
   29946    28751    28758 1
   29947    28751    28768 1
   29948    28752    28753 1
   29949    28752    28769 1
   29950    28752    28770 1
   29951    28753    28754 1
   29952    28753    28771 1
   29953    28753    28772 1
   29954    28754    28755 1
   29955    28754    28773 1
   29956    28754    28774 1
   29957    28755    28756 1
   29958    28755    28775 1
   29959    28755    28776 1
   29960    28756    28757 1
   29961    28756    28777 1
   29962    28756    28778 1
   29963    28757    28779 1
   29964    28757    28780 1
   29965    28757    28781 1
   29966    28758    28759 1
   29967    28758    28782 1
   29968    28758    28783 1
   29969    28759    28760 1
   29970    28759    28784 1
   29971    28759    28785 1
   29972    28760    28761 1
   29973    28760    28786 1
   29974    28760    28787 1
   29975    28761    28762 1
   29976    28761    28788 1
   29977    28761    28789 1
   29978    28762    28763 1
   29979    28762    28790 1
   29980    28762    28791 1
   29981    28763    28764 1
   29982    28763    28792 1
   29983    28763    28793 1
   29984    28764    28765 1
   29985    28764    28794 1
   29986    28764    28795 1
   29987    28765    28796 1
   29988    28765    28797 1
   29989    28765    28798 1
   29990    28799    28800 1
   29991    28799    28806 1
   29992    28799    28822 1
   29993    28799    28871 1
   29994    28800    28801 1
   29995    28800    28804 1
   29996    28801    28802 1
   29997    28801    28805 1
   29998    28802    28803 1
   29999    28803    28804 1
   30000    28804    28810 1
   30001    28805    28806 1
   30002    28805    28809 1
   30003    28806    28807 1
   30004    28807    28808 1
   30005    28807    28811 1
   30006    28808    28809 1
   30007    28808    28814 1
   30008    28812    28813 1
   30009    28812    28820 1
   30010    28813    28814 1
   30011    28813    28821 1
   30012    28814    28815 1
   30013    28815    28816 1
   30014    28815    28819 1
   30015    28816    28817 1
   30016    28817    28818 1
   30017    28818    28819 1
   30018    28819    28820 1
   30019    28820    28924 1
   30020    28822    28823 1
   30021    28822    28838 1
   30022    28822    28839 1
   30023    28823    28824 1
   30024    28823    28830 1
   30025    28823    28840 1
   30026    28824    28825 1
   30027    28824    28841 1
   30028    28824    28842 1
   30029    28825    28826 1
   30030    28825    28843 1
   30031    28825    28844 1
   30032    28826    28827 1
   30033    28826    28845 1
   30034    28826    28846 1
   30035    28827    28828 1
   30036    28827    28847 1
   30037    28827    28848 1
   30038    28828    28829 1
   30039    28828    28849 1
   30040    28828    28850 1
   30041    28829    28851 1
   30042    28829    28852 1
   30043    28829    28853 1
   30044    28830    28831 1
   30045    28830    28854 1
   30046    28830    28855 1
   30047    28831    28832 1
   30048    28831    28856 1
   30049    28831    28857 1
   30050    28832    28833 1
   30051    28832    28858 1
   30052    28832    28859 1
   30053    28833    28834 1
   30054    28833    28860 1
   30055    28833    28861 1
   30056    28834    28835 1
   30057    28834    28862 1
   30058    28834    28863 1
   30059    28835    28836 1
   30060    28835    28864 1
   30061    28835    28865 1
   30062    28836    28837 1
   30063    28836    28866 1
   30064    28836    28867 1
   30065    28837    28868 1
   30066    28837    28869 1
   30067    28837    28870 1
   30068    28871    28872 1
   30069    28871    28887 1
   30070    28871    28888 1
   30071    28872    28873 1
   30072    28872    28879 1
   30073    28872    28889 1
   30074    28873    28874 1
   30075    28873    28890 1
   30076    28873    28891 1
   30077    28874    28875 1
   30078    28874    28892 1
   30079    28874    28893 1
   30080    28875    28876 1
   30081    28875    28894 1
   30082    28875    28895 1
   30083    28876    28877 1
   30084    28876    28896 1
   30085    28876    28897 1
   30086    28877    28878 1
   30087    28877    28898 1
   30088    28877    28899 1
   30089    28878    28900 1
   30090    28878    28901 1
   30091    28878    28902 1
   30092    28879    28880 1
   30093    28879    28903 1
   30094    28879    28904 1
   30095    28880    28881 1
   30096    28880    28905 1
   30097    28880    28906 1
   30098    28881    28882 1
   30099    28881    28907 1
   30100    28881    28908 1
   30101    28882    28883 1
   30102    28882    28909 1
   30103    28882    28910 1
   30104    28883    28884 1
   30105    28883    28911 1
   30106    28883    28912 1
   30107    28884    28885 1
   30108    28884    28913 1
   30109    28884    28914 1
   30110    28885    28886 1
   30111    28885    28915 1
   30112    28885    28916 1
   30113    28886    28917 1
   30114    28886    28918 1
   30115    28886    28919 1
   30116    28920    28921 1
   30117    28920    28927 1
   30118    28920    28943 1
   30119    28920    28992 1
   30120    28921    28922 1
   30121    28921    28925 1
   30122    28922    28923 1
   30123    28922    28926 1
   30124    28923    28924 1
   30125    28924    28925 1
   30126    28925    28931 1
   30127    28926    28927 1
   30128    28926    28930 1
   30129    28927    28928 1
   30130    28928    28929 1
   30131    28928    28932 1
   30132    28929    28930 1
   30133    28929    28935 1
   30134    28933    28934 1
   30135    28933    28941 1
   30136    28934    28935 1
   30137    28934    28942 1
   30138    28935    28936 1
   30139    28936    28937 1
   30140    28936    28940 1
   30141    28937    28938 1
   30142    28938    28939 1
   30143    28939    28940 1
   30144    28940    28941 1
   30145    28941    29045 1
   30146    28943    28944 1
   30147    28943    28959 1
   30148    28943    28960 1
   30149    28944    28945 1
   30150    28944    28951 1
   30151    28944    28961 1
   30152    28945    28946 1
   30153    28945    28962 1
   30154    28945    28963 1
   30155    28946    28947 1
   30156    28946    28964 1
   30157    28946    28965 1
   30158    28947    28948 1
   30159    28947    28966 1
   30160    28947    28967 1
   30161    28948    28949 1
   30162    28948    28968 1
   30163    28948    28969 1
   30164    28949    28950 1
   30165    28949    28970 1
   30166    28949    28971 1
   30167    28950    28972 1
   30168    28950    28973 1
   30169    28950    28974 1
   30170    28951    28952 1
   30171    28951    28975 1
   30172    28951    28976 1
   30173    28952    28953 1
   30174    28952    28977 1
   30175    28952    28978 1
   30176    28953    28954 1
   30177    28953    28979 1
   30178    28953    28980 1
   30179    28954    28955 1
   30180    28954    28981 1
   30181    28954    28982 1
   30182    28955    28956 1
   30183    28955    28983 1
   30184    28955    28984 1
   30185    28956    28957 1
   30186    28956    28985 1
   30187    28956    28986 1
   30188    28957    28958 1
   30189    28957    28987 1
   30190    28957    28988 1
   30191    28958    28989 1
   30192    28958    28990 1
   30193    28958    28991 1
   30194    28992    28993 1
   30195    28992    29008 1
   30196    28992    29009 1
   30197    28993    28994 1
   30198    28993    29000 1
   30199    28993    29010 1
   30200    28994    28995 1
   30201    28994    29011 1
   30202    28994    29012 1
   30203    28995    28996 1
   30204    28995    29013 1
   30205    28995    29014 1
   30206    28996    28997 1
   30207    28996    29015 1
   30208    28996    29016 1
   30209    28997    28998 1
   30210    28997    29017 1
   30211    28997    29018 1
   30212    28998    28999 1
   30213    28998    29019 1
   30214    28998    29020 1
   30215    28999    29021 1
   30216    28999    29022 1
   30217    28999    29023 1
   30218    29000    29001 1
   30219    29000    29024 1
   30220    29000    29025 1
   30221    29001    29002 1
   30222    29001    29026 1
   30223    29001    29027 1
   30224    29002    29003 1
   30225    29002    29028 1
   30226    29002    29029 1
   30227    29003    29004 1
   30228    29003    29030 1
   30229    29003    29031 1
   30230    29004    29005 1
   30231    29004    29032 1
   30232    29004    29033 1
   30233    29005    29006 1
   30234    29005    29034 1
   30235    29005    29035 1
   30236    29006    29007 1
   30237    29006    29036 1
   30238    29006    29037 1
   30239    29007    29038 1
   30240    29007    29039 1
   30241    29007    29040 1
   30242    29041    29042 1
   30243    29041    29048 1
   30244    29041    29064 1
   30245    29041    29113 1
   30246    29042    29043 1
   30247    29042    29046 1
   30248    29043    29044 1
   30249    29043    29047 1
   30250    29044    29045 1
   30251    29045    29046 1
   30252    29046    29052 1
   30253    29047    29048 1
   30254    29047    29051 1
   30255    29048    29049 1
   30256    29049    29050 1
   30257    29049    29053 1
   30258    29050    29051 1
   30259    29050    29056 1
   30260    29054    29055 1
   30261    29054    29062 1
   30262    29055    29056 1
   30263    29055    29063 1
   30264    29056    29057 1
   30265    29057    29058 1
   30266    29057    29061 1
   30267    29058    29059 1
   30268    29059    29060 1
   30269    29060    29061 1
   30270    29061    29062 1
   30271    29062    29166 1
   30272    29064    29065 1
   30273    29064    29080 1
   30274    29064    29081 1
   30275    29065    29066 1
   30276    29065    29072 1
   30277    29065    29082 1
   30278    29066    29067 1
   30279    29066    29083 1
   30280    29066    29084 1
   30281    29067    29068 1
   30282    29067    29085 1
   30283    29067    29086 1
   30284    29068    29069 1
   30285    29068    29087 1
   30286    29068    29088 1
   30287    29069    29070 1
   30288    29069    29089 1
   30289    29069    29090 1
   30290    29070    29071 1
   30291    29070    29091 1
   30292    29070    29092 1
   30293    29071    29093 1
   30294    29071    29094 1
   30295    29071    29095 1
   30296    29072    29073 1
   30297    29072    29096 1
   30298    29072    29097 1
   30299    29073    29074 1
   30300    29073    29098 1
   30301    29073    29099 1
   30302    29074    29075 1
   30303    29074    29100 1
   30304    29074    29101 1
   30305    29075    29076 1
   30306    29075    29102 1
   30307    29075    29103 1
   30308    29076    29077 1
   30309    29076    29104 1
   30310    29076    29105 1
   30311    29077    29078 1
   30312    29077    29106 1
   30313    29077    29107 1
   30314    29078    29079 1
   30315    29078    29108 1
   30316    29078    29109 1
   30317    29079    29110 1
   30318    29079    29111 1
   30319    29079    29112 1
   30320    29113    29114 1
   30321    29113    29129 1
   30322    29113    29130 1
   30323    29114    29115 1
   30324    29114    29121 1
   30325    29114    29131 1
   30326    29115    29116 1
   30327    29115    29132 1
   30328    29115    29133 1
   30329    29116    29117 1
   30330    29116    29134 1
   30331    29116    29135 1
   30332    29117    29118 1
   30333    29117    29136 1
   30334    29117    29137 1
   30335    29118    29119 1
   30336    29118    29138 1
   30337    29118    29139 1
   30338    29119    29120 1
   30339    29119    29140 1
   30340    29119    29141 1
   30341    29120    29142 1
   30342    29120    29143 1
   30343    29120    29144 1
   30344    29121    29122 1
   30345    29121    29145 1
   30346    29121    29146 1
   30347    29122    29123 1
   30348    29122    29147 1
   30349    29122    29148 1
   30350    29123    29124 1
   30351    29123    29149 1
   30352    29123    29150 1
   30353    29124    29125 1
   30354    29124    29151 1
   30355    29124    29152 1
   30356    29125    29126 1
   30357    29125    29153 1
   30358    29125    29154 1
   30359    29126    29127 1
   30360    29126    29155 1
   30361    29126    29156 1
   30362    29127    29128 1
   30363    29127    29157 1
   30364    29127    29158 1
   30365    29128    29159 1
   30366    29128    29160 1
   30367    29128    29161 1
   30368    29162    29163 1
   30369    29162    29169 1
   30370    29162    29185 1
   30371    29162    29234 1
   30372    29163    29164 1
   30373    29163    29167 1
   30374    29164    29165 1
   30375    29164    29168 1
   30376    29165    29166 1
   30377    29166    29167 1
   30378    29167    29173 1
   30379    29168    29169 1
   30380    29168    29172 1
   30381    29169    29170 1
   30382    29170    29171 1
   30383    29170    29174 1
   30384    29171    29172 1
   30385    29171    29177 1
   30386    29175    29176 1
   30387    29175    29183 1
   30388    29176    29177 1
   30389    29176    29184 1
   30390    29177    29178 1
   30391    29178    29179 1
   30392    29178    29182 1
   30393    29179    29180 1
   30394    29180    29181 1
   30395    29181    29182 1
   30396    29182    29183 1
   30397    29183    29287 1
   30398    29185    29186 1
   30399    29185    29201 1
   30400    29185    29202 1
   30401    29186    29187 1
   30402    29186    29193 1
   30403    29186    29203 1
   30404    29187    29188 1
   30405    29187    29204 1
   30406    29187    29205 1
   30407    29188    29189 1
   30408    29188    29206 1
   30409    29188    29207 1
   30410    29189    29190 1
   30411    29189    29208 1
   30412    29189    29209 1
   30413    29190    29191 1
   30414    29190    29210 1
   30415    29190    29211 1
   30416    29191    29192 1
   30417    29191    29212 1
   30418    29191    29213 1
   30419    29192    29214 1
   30420    29192    29215 1
   30421    29192    29216 1
   30422    29193    29194 1
   30423    29193    29217 1
   30424    29193    29218 1
   30425    29194    29195 1
   30426    29194    29219 1
   30427    29194    29220 1
   30428    29195    29196 1
   30429    29195    29221 1
   30430    29195    29222 1
   30431    29196    29197 1
   30432    29196    29223 1
   30433    29196    29224 1
   30434    29197    29198 1
   30435    29197    29225 1
   30436    29197    29226 1
   30437    29198    29199 1
   30438    29198    29227 1
   30439    29198    29228 1
   30440    29199    29200 1
   30441    29199    29229 1
   30442    29199    29230 1
   30443    29200    29231 1
   30444    29200    29232 1
   30445    29200    29233 1
   30446    29234    29235 1
   30447    29234    29250 1
   30448    29234    29251 1
   30449    29235    29236 1
   30450    29235    29242 1
   30451    29235    29252 1
   30452    29236    29237 1
   30453    29236    29253 1
   30454    29236    29254 1
   30455    29237    29238 1
   30456    29237    29255 1
   30457    29237    29256 1
   30458    29238    29239 1
   30459    29238    29257 1
   30460    29238    29258 1
   30461    29239    29240 1
   30462    29239    29259 1
   30463    29239    29260 1
   30464    29240    29241 1
   30465    29240    29261 1
   30466    29240    29262 1
   30467    29241    29263 1
   30468    29241    29264 1
   30469    29241    29265 1
   30470    29242    29243 1
   30471    29242    29266 1
   30472    29242    29267 1
   30473    29243    29244 1
   30474    29243    29268 1
   30475    29243    29269 1
   30476    29244    29245 1
   30477    29244    29270 1
   30478    29244    29271 1
   30479    29245    29246 1
   30480    29245    29272 1
   30481    29245    29273 1
   30482    29246    29247 1
   30483    29246    29274 1
   30484    29246    29275 1
   30485    29247    29248 1
   30486    29247    29276 1
   30487    29247    29277 1
   30488    29248    29249 1
   30489    29248    29278 1
   30490    29248    29279 1
   30491    29249    29280 1
   30492    29249    29281 1
   30493    29249    29282 1
   30494    29283    29284 1
   30495    29283    29290 1
   30496    29283    29306 1
   30497    29283    29355 1
   30498    29284    29285 1
   30499    29284    29288 1
   30500    29285    29286 1
   30501    29285    29289 1
   30502    29286    29287 1
   30503    29287    29288 1
   30504    29288    29294 1
   30505    29289    29290 1
   30506    29289    29293 1
   30507    29290    29291 1
   30508    29291    29292 1
   30509    29291    29295 1
   30510    29292    29293 1
   30511    29292    29298 1
   30512    29296    29297 1
   30513    29296    29304 1
   30514    29297    29298 1
   30515    29297    29305 1
   30516    29298    29299 1
   30517    29299    29300 1
   30518    29299    29303 1
   30519    29300    29301 1
   30520    29301    29302 1
   30521    29302    29303 1
   30522    29303    29304 1
   30523    29304    29408 1
   30524    29306    29307 1
   30525    29306    29322 1
   30526    29306    29323 1
   30527    29307    29308 1
   30528    29307    29314 1
   30529    29307    29324 1
   30530    29308    29309 1
   30531    29308    29325 1
   30532    29308    29326 1
   30533    29309    29310 1
   30534    29309    29327 1
   30535    29309    29328 1
   30536    29310    29311 1
   30537    29310    29329 1
   30538    29310    29330 1
   30539    29311    29312 1
   30540    29311    29331 1
   30541    29311    29332 1
   30542    29312    29313 1
   30543    29312    29333 1
   30544    29312    29334 1
   30545    29313    29335 1
   30546    29313    29336 1
   30547    29313    29337 1
   30548    29314    29315 1
   30549    29314    29338 1
   30550    29314    29339 1
   30551    29315    29316 1
   30552    29315    29340 1
   30553    29315    29341 1
   30554    29316    29317 1
   30555    29316    29342 1
   30556    29316    29343 1
   30557    29317    29318 1
   30558    29317    29344 1
   30559    29317    29345 1
   30560    29318    29319 1
   30561    29318    29346 1
   30562    29318    29347 1
   30563    29319    29320 1
   30564    29319    29348 1
   30565    29319    29349 1
   30566    29320    29321 1
   30567    29320    29350 1
   30568    29320    29351 1
   30569    29321    29352 1
   30570    29321    29353 1
   30571    29321    29354 1
   30572    29355    29356 1
   30573    29355    29371 1
   30574    29355    29372 1
   30575    29356    29357 1
   30576    29356    29363 1
   30577    29356    29373 1
   30578    29357    29358 1
   30579    29357    29374 1
   30580    29357    29375 1
   30581    29358    29359 1
   30582    29358    29376 1
   30583    29358    29377 1
   30584    29359    29360 1
   30585    29359    29378 1
   30586    29359    29379 1
   30587    29360    29361 1
   30588    29360    29380 1
   30589    29360    29381 1
   30590    29361    29362 1
   30591    29361    29382 1
   30592    29361    29383 1
   30593    29362    29384 1
   30594    29362    29385 1
   30595    29362    29386 1
   30596    29363    29364 1
   30597    29363    29387 1
   30598    29363    29388 1
   30599    29364    29365 1
   30600    29364    29389 1
   30601    29364    29390 1
   30602    29365    29366 1
   30603    29365    29391 1
   30604    29365    29392 1
   30605    29366    29367 1
   30606    29366    29393 1
   30607    29366    29394 1
   30608    29367    29368 1
   30609    29367    29395 1
   30610    29367    29396 1
   30611    29368    29369 1
   30612    29368    29397 1
   30613    29368    29398 1
   30614    29369    29370 1
   30615    29369    29399 1
   30616    29369    29400 1
   30617    29370    29401 1
   30618    29370    29402 1
   30619    29370    29403 1
   30620    29404    29405 1
   30621    29404    29411 1
   30622    29404    29427 1
   30623    29404    29476 1
   30624    29405    29406 1
   30625    29405    29409 1
   30626    29406    29407 1
   30627    29406    29410 1
   30628    29407    29408 1
   30629    29408    29409 1
   30630    29409    29415 1
   30631    29410    29411 1
   30632    29410    29414 1
   30633    29411    29412 1
   30634    29412    29413 1
   30635    29412    29416 1
   30636    29413    29414 1
   30637    29413    29419 1
   30638    29417    29418 1
   30639    29417    29425 1
   30640    29418    29419 1
   30641    29418    29426 1
   30642    29419    29420 1
   30643    29420    29421 1
   30644    29420    29424 1
   30645    29421    29422 1
   30646    29422    29423 1
   30647    29423    29424 1
   30648    29424    29425 1
   30649    29425    29529 1
   30650    29427    29428 1
   30651    29427    29443 1
   30652    29427    29444 1
   30653    29428    29429 1
   30654    29428    29435 1
   30655    29428    29445 1
   30656    29429    29430 1
   30657    29429    29446 1
   30658    29429    29447 1
   30659    29430    29431 1
   30660    29430    29448 1
   30661    29430    29449 1
   30662    29431    29432 1
   30663    29431    29450 1
   30664    29431    29451 1
   30665    29432    29433 1
   30666    29432    29452 1
   30667    29432    29453 1
   30668    29433    29434 1
   30669    29433    29454 1
   30670    29433    29455 1
   30671    29434    29456 1
   30672    29434    29457 1
   30673    29434    29458 1
   30674    29435    29436 1
   30675    29435    29459 1
   30676    29435    29460 1
   30677    29436    29437 1
   30678    29436    29461 1
   30679    29436    29462 1
   30680    29437    29438 1
   30681    29437    29463 1
   30682    29437    29464 1
   30683    29438    29439 1
   30684    29438    29465 1
   30685    29438    29466 1
   30686    29439    29440 1
   30687    29439    29467 1
   30688    29439    29468 1
   30689    29440    29441 1
   30690    29440    29469 1
   30691    29440    29470 1
   30692    29441    29442 1
   30693    29441    29471 1
   30694    29441    29472 1
   30695    29442    29473 1
   30696    29442    29474 1
   30697    29442    29475 1
   30698    29476    29477 1
   30699    29476    29492 1
   30700    29476    29493 1
   30701    29477    29478 1
   30702    29477    29484 1
   30703    29477    29494 1
   30704    29478    29479 1
   30705    29478    29495 1
   30706    29478    29496 1
   30707    29479    29480 1
   30708    29479    29497 1
   30709    29479    29498 1
   30710    29480    29481 1
   30711    29480    29499 1
   30712    29480    29500 1
   30713    29481    29482 1
   30714    29481    29501 1
   30715    29481    29502 1
   30716    29482    29483 1
   30717    29482    29503 1
   30718    29482    29504 1
   30719    29483    29505 1
   30720    29483    29506 1
   30721    29483    29507 1
   30722    29484    29485 1
   30723    29484    29508 1
   30724    29484    29509 1
   30725    29485    29486 1
   30726    29485    29510 1
   30727    29485    29511 1
   30728    29486    29487 1
   30729    29486    29512 1
   30730    29486    29513 1
   30731    29487    29488 1
   30732    29487    29514 1
   30733    29487    29515 1
   30734    29488    29489 1
   30735    29488    29516 1
   30736    29488    29517 1
   30737    29489    29490 1
   30738    29489    29518 1
   30739    29489    29519 1
   30740    29490    29491 1
   30741    29490    29520 1
   30742    29490    29521 1
   30743    29491    29522 1
   30744    29491    29523 1
   30745    29491    29524 1
   30746    29525    29526 1
   30747    29525    29532 1
   30748    29525    29548 1
   30749    29525    29597 1
   30750    29526    29527 1
   30751    29526    29530 1
   30752    29527    29528 1
   30753    29527    29531 1
   30754    29528    29529 1
   30755    29529    29530 1
   30756    29530    29536 1
   30757    29531    29532 1
   30758    29531    29535 1
   30759    29532    29533 1
   30760    29533    29534 1
   30761    29533    29537 1
   30762    29534    29535 1
   30763    29534    29540 1
   30764    29538    29539 1
   30765    29538    29546 1
   30766    29539    29540 1
   30767    29539    29547 1
   30768    29540    29541 1
   30769    29541    29542 1
   30770    29541    29545 1
   30771    29542    29543 1
   30772    29543    29544 1
   30773    29544    29545 1
   30774    29545    29546 1
   30775    29546    29650 1
   30776    29548    29549 1
   30777    29548    29564 1
   30778    29548    29565 1
   30779    29549    29550 1
   30780    29549    29556 1
   30781    29549    29566 1
   30782    29550    29551 1
   30783    29550    29567 1
   30784    29550    29568 1
   30785    29551    29552 1
   30786    29551    29569 1
   30787    29551    29570 1
   30788    29552    29553 1
   30789    29552    29571 1
   30790    29552    29572 1
   30791    29553    29554 1
   30792    29553    29573 1
   30793    29553    29574 1
   30794    29554    29555 1
   30795    29554    29575 1
   30796    29554    29576 1
   30797    29555    29577 1
   30798    29555    29578 1
   30799    29555    29579 1
   30800    29556    29557 1
   30801    29556    29580 1
   30802    29556    29581 1
   30803    29557    29558 1
   30804    29557    29582 1
   30805    29557    29583 1
   30806    29558    29559 1
   30807    29558    29584 1
   30808    29558    29585 1
   30809    29559    29560 1
   30810    29559    29586 1
   30811    29559    29587 1
   30812    29560    29561 1
   30813    29560    29588 1
   30814    29560    29589 1
   30815    29561    29562 1
   30816    29561    29590 1
   30817    29561    29591 1
   30818    29562    29563 1
   30819    29562    29592 1
   30820    29562    29593 1
   30821    29563    29594 1
   30822    29563    29595 1
   30823    29563    29596 1
   30824    29597    29598 1
   30825    29597    29613 1
   30826    29597    29614 1
   30827    29598    29599 1
   30828    29598    29605 1
   30829    29598    29615 1
   30830    29599    29600 1
   30831    29599    29616 1
   30832    29599    29617 1
   30833    29600    29601 1
   30834    29600    29618 1
   30835    29600    29619 1
   30836    29601    29602 1
   30837    29601    29620 1
   30838    29601    29621 1
   30839    29602    29603 1
   30840    29602    29622 1
   30841    29602    29623 1
   30842    29603    29604 1
   30843    29603    29624 1
   30844    29603    29625 1
   30845    29604    29626 1
   30846    29604    29627 1
   30847    29604    29628 1
   30848    29605    29606 1
   30849    29605    29629 1
   30850    29605    29630 1
   30851    29606    29607 1
   30852    29606    29631 1
   30853    29606    29632 1
   30854    29607    29608 1
   30855    29607    29633 1
   30856    29607    29634 1
   30857    29608    29609 1
   30858    29608    29635 1
   30859    29608    29636 1
   30860    29609    29610 1
   30861    29609    29637 1
   30862    29609    29638 1
   30863    29610    29611 1
   30864    29610    29639 1
   30865    29610    29640 1
   30866    29611    29612 1
   30867    29611    29641 1
   30868    29611    29642 1
   30869    29612    29643 1
   30870    29612    29644 1
   30871    29612    29645 1
   30872    29646    29647 1
   30873    29646    29653 1
   30874    29646    29669 1
   30875    29646    29718 1
   30876    29647    29648 1
   30877    29647    29651 1
   30878    29648    29649 1
   30879    29648    29652 1
   30880    29649    29650 1
   30881    29650    29651 1
   30882    29651    29657 1
   30883    29652    29653 1
   30884    29652    29656 1
   30885    29653    29654 1
   30886    29654    29655 1
   30887    29654    29658 1
   30888    29655    29656 1
   30889    29655    29661 1
   30890    29659    29660 1
   30891    29659    29667 1
   30892    29660    29661 1
   30893    29660    29668 1
   30894    29661    29662 1
   30895    29662    29663 1
   30896    29662    29666 1
   30897    29663    29664 1
   30898    29664    29665 1
   30899    29665    29666 1
   30900    29666    29667 1
   30901    29667    29771 1
   30902    29669    29670 1
   30903    29669    29685 1
   30904    29669    29686 1
   30905    29670    29671 1
   30906    29670    29677 1
   30907    29670    29687 1
   30908    29671    29672 1
   30909    29671    29688 1
   30910    29671    29689 1
   30911    29672    29673 1
   30912    29672    29690 1
   30913    29672    29691 1
   30914    29673    29674 1
   30915    29673    29692 1
   30916    29673    29693 1
   30917    29674    29675 1
   30918    29674    29694 1
   30919    29674    29695 1
   30920    29675    29676 1
   30921    29675    29696 1
   30922    29675    29697 1
   30923    29676    29698 1
   30924    29676    29699 1
   30925    29676    29700 1
   30926    29677    29678 1
   30927    29677    29701 1
   30928    29677    29702 1
   30929    29678    29679 1
   30930    29678    29703 1
   30931    29678    29704 1
   30932    29679    29680 1
   30933    29679    29705 1
   30934    29679    29706 1
   30935    29680    29681 1
   30936    29680    29707 1
   30937    29680    29708 1
   30938    29681    29682 1
   30939    29681    29709 1
   30940    29681    29710 1
   30941    29682    29683 1
   30942    29682    29711 1
   30943    29682    29712 1
   30944    29683    29684 1
   30945    29683    29713 1
   30946    29683    29714 1
   30947    29684    29715 1
   30948    29684    29716 1
   30949    29684    29717 1
   30950    29718    29719 1
   30951    29718    29734 1
   30952    29718    29735 1
   30953    29719    29720 1
   30954    29719    29726 1
   30955    29719    29736 1
   30956    29720    29721 1
   30957    29720    29737 1
   30958    29720    29738 1
   30959    29721    29722 1
   30960    29721    29739 1
   30961    29721    29740 1
   30962    29722    29723 1
   30963    29722    29741 1
   30964    29722    29742 1
   30965    29723    29724 1
   30966    29723    29743 1
   30967    29723    29744 1
   30968    29724    29725 1
   30969    29724    29745 1
   30970    29724    29746 1
   30971    29725    29747 1
   30972    29725    29748 1
   30973    29725    29749 1
   30974    29726    29727 1
   30975    29726    29750 1
   30976    29726    29751 1
   30977    29727    29728 1
   30978    29727    29752 1
   30979    29727    29753 1
   30980    29728    29729 1
   30981    29728    29754 1
   30982    29728    29755 1
   30983    29729    29730 1
   30984    29729    29756 1
   30985    29729    29757 1
   30986    29730    29731 1
   30987    29730    29758 1
   30988    29730    29759 1
   30989    29731    29732 1
   30990    29731    29760 1
   30991    29731    29761 1
   30992    29732    29733 1
   30993    29732    29762 1
   30994    29732    29763 1
   30995    29733    29764 1
   30996    29733    29765 1
   30997    29733    29766 1
   30998    29767    29768 1
   30999    29767    29774 1
   31000    29767    29790 1
   31001    29767    29839 1
   31002    29768    29769 1
   31003    29768    29772 1
   31004    29769    29770 1
   31005    29769    29773 1
   31006    29770    29771 1
   31007    29771    29772 1
   31008    29772    29778 1
   31009    29773    29774 1
   31010    29773    29777 1
   31011    29774    29775 1
   31012    29775    29776 1
   31013    29775    29779 1
   31014    29776    29777 1
   31015    29776    29782 1
   31016    29780    29781 1
   31017    29780    29788 1
   31018    29781    29782 1
   31019    29781    29789 1
   31020    29782    29783 1
   31021    29783    29784 1
   31022    29783    29787 1
   31023    29784    29785 1
   31024    29785    29786 1
   31025    29786    29787 1
   31026    29787    29788 1
   31027    29788    29892 1
   31028    29790    29791 1
   31029    29790    29806 1
   31030    29790    29807 1
   31031    29791    29792 1
   31032    29791    29798 1
   31033    29791    29808 1
   31034    29792    29793 1
   31035    29792    29809 1
   31036    29792    29810 1
   31037    29793    29794 1
   31038    29793    29811 1
   31039    29793    29812 1
   31040    29794    29795 1
   31041    29794    29813 1
   31042    29794    29814 1
   31043    29795    29796 1
   31044    29795    29815 1
   31045    29795    29816 1
   31046    29796    29797 1
   31047    29796    29817 1
   31048    29796    29818 1
   31049    29797    29819 1
   31050    29797    29820 1
   31051    29797    29821 1
   31052    29798    29799 1
   31053    29798    29822 1
   31054    29798    29823 1
   31055    29799    29800 1
   31056    29799    29824 1
   31057    29799    29825 1
   31058    29800    29801 1
   31059    29800    29826 1
   31060    29800    29827 1
   31061    29801    29802 1
   31062    29801    29828 1
   31063    29801    29829 1
   31064    29802    29803 1
   31065    29802    29830 1
   31066    29802    29831 1
   31067    29803    29804 1
   31068    29803    29832 1
   31069    29803    29833 1
   31070    29804    29805 1
   31071    29804    29834 1
   31072    29804    29835 1
   31073    29805    29836 1
   31074    29805    29837 1
   31075    29805    29838 1
   31076    29839    29840 1
   31077    29839    29855 1
   31078    29839    29856 1
   31079    29840    29841 1
   31080    29840    29847 1
   31081    29840    29857 1
   31082    29841    29842 1
   31083    29841    29858 1
   31084    29841    29859 1
   31085    29842    29843 1
   31086    29842    29860 1
   31087    29842    29861 1
   31088    29843    29844 1
   31089    29843    29862 1
   31090    29843    29863 1
   31091    29844    29845 1
   31092    29844    29864 1
   31093    29844    29865 1
   31094    29845    29846 1
   31095    29845    29866 1
   31096    29845    29867 1
   31097    29846    29868 1
   31098    29846    29869 1
   31099    29846    29870 1
   31100    29847    29848 1
   31101    29847    29871 1
   31102    29847    29872 1
   31103    29848    29849 1
   31104    29848    29873 1
   31105    29848    29874 1
   31106    29849    29850 1
   31107    29849    29875 1
   31108    29849    29876 1
   31109    29850    29851 1
   31110    29850    29877 1
   31111    29850    29878 1
   31112    29851    29852 1
   31113    29851    29879 1
   31114    29851    29880 1
   31115    29852    29853 1
   31116    29852    29881 1
   31117    29852    29882 1
   31118    29853    29854 1
   31119    29853    29883 1
   31120    29853    29884 1
   31121    29854    29885 1
   31122    29854    29886 1
   31123    29854    29887 1
   31124    29888    29889 1
   31125    29888    29895 1
   31126    29888    29911 1
   31127    29888    29960 1
   31128    29889    29890 1
   31129    29889    29893 1
   31130    29890    29891 1
   31131    29890    29894 1
   31132    29891    29892 1
   31133    29892    29893 1
   31134    29893    29899 1
   31135    29894    29895 1
   31136    29894    29898 1
   31137    29895    29896 1
   31138    29896    29897 1
   31139    29896    29900 1
   31140    29897    29898 1
   31141    29897    29903 1
   31142    29901    29902 1
   31143    29901    29909 1
   31144    29902    29903 1
   31145    29902    29910 1
   31146    29903    29904 1
   31147    29904    29905 1
   31148    29904    29908 1
   31149    29905    29906 1
   31150    29906    29907 1
   31151    29907    29908 1
   31152    29908    29909 1
   31153    29909    30013 1
   31154    29911    29912 1
   31155    29911    29927 1
   31156    29911    29928 1
   31157    29912    29913 1
   31158    29912    29919 1
   31159    29912    29929 1
   31160    29913    29914 1
   31161    29913    29930 1
   31162    29913    29931 1
   31163    29914    29915 1
   31164    29914    29932 1
   31165    29914    29933 1
   31166    29915    29916 1
   31167    29915    29934 1
   31168    29915    29935 1
   31169    29916    29917 1
   31170    29916    29936 1
   31171    29916    29937 1
   31172    29917    29918 1
   31173    29917    29938 1
   31174    29917    29939 1
   31175    29918    29940 1
   31176    29918    29941 1
   31177    29918    29942 1
   31178    29919    29920 1
   31179    29919    29943 1
   31180    29919    29944 1
   31181    29920    29921 1
   31182    29920    29945 1
   31183    29920    29946 1
   31184    29921    29922 1
   31185    29921    29947 1
   31186    29921    29948 1
   31187    29922    29923 1
   31188    29922    29949 1
   31189    29922    29950 1
   31190    29923    29924 1
   31191    29923    29951 1
   31192    29923    29952 1
   31193    29924    29925 1
   31194    29924    29953 1
   31195    29924    29954 1
   31196    29925    29926 1
   31197    29925    29955 1
   31198    29925    29956 1
   31199    29926    29957 1
   31200    29926    29958 1
   31201    29926    29959 1
   31202    29960    29961 1
   31203    29960    29976 1
   31204    29960    29977 1
   31205    29961    29962 1
   31206    29961    29968 1
   31207    29961    29978 1
   31208    29962    29963 1
   31209    29962    29979 1
   31210    29962    29980 1
   31211    29963    29964 1
   31212    29963    29981 1
   31213    29963    29982 1
   31214    29964    29965 1
   31215    29964    29983 1
   31216    29964    29984 1
   31217    29965    29966 1
   31218    29965    29985 1
   31219    29965    29986 1
   31220    29966    29967 1
   31221    29966    29987 1
   31222    29966    29988 1
   31223    29967    29989 1
   31224    29967    29990 1
   31225    29967    29991 1
   31226    29968    29969 1
   31227    29968    29992 1
   31228    29968    29993 1
   31229    29969    29970 1
   31230    29969    29994 1
   31231    29969    29995 1
   31232    29970    29971 1
   31233    29970    29996 1
   31234    29970    29997 1
   31235    29971    29972 1
   31236    29971    29998 1
   31237    29971    29999 1
   31238    29972    29973 1
   31239    29972    30000 1
   31240    29972    30001 1
   31241    29973    29974 1
   31242    29973    30002 1
   31243    29973    30003 1
   31244    29974    29975 1
   31245    29974    30004 1
   31246    29974    30005 1
   31247    29975    30006 1
   31248    29975    30007 1
   31249    29975    30008 1
   31250    30009    30010 1
   31251    30009    30016 1
   31252    30009    30032 1
   31253    30009    30081 1
   31254    30010    30011 1
   31255    30010    30014 1
   31256    30011    30012 1
   31257    30011    30015 1
   31258    30012    30013 1
   31259    30013    30014 1
   31260    30014    30020 1
   31261    30015    30016 1
   31262    30015    30019 1
   31263    30016    30017 1
   31264    30017    30018 1
   31265    30017    30021 1
   31266    30018    30019 1
   31267    30018    30024 1
   31268    30022    30023 1
   31269    30022    30030 1
   31270    30023    30024 1
   31271    30023    30031 1
   31272    30024    30025 1
   31273    30025    30026 1
   31274    30025    30029 1
   31275    30026    30027 1
   31276    30027    30028 1
   31277    30028    30029 1
   31278    30029    30030 1
   31279    30030    30134 1
   31280    30032    30033 1
   31281    30032    30048 1
   31282    30032    30049 1
   31283    30033    30034 1
   31284    30033    30040 1
   31285    30033    30050 1
   31286    30034    30035 1
   31287    30034    30051 1
   31288    30034    30052 1
   31289    30035    30036 1
   31290    30035    30053 1
   31291    30035    30054 1
   31292    30036    30037 1
   31293    30036    30055 1
   31294    30036    30056 1
   31295    30037    30038 1
   31296    30037    30057 1
   31297    30037    30058 1
   31298    30038    30039 1
   31299    30038    30059 1
   31300    30038    30060 1
   31301    30039    30061 1
   31302    30039    30062 1
   31303    30039    30063 1
   31304    30040    30041 1
   31305    30040    30064 1
   31306    30040    30065 1
   31307    30041    30042 1
   31308    30041    30066 1
   31309    30041    30067 1
   31310    30042    30043 1
   31311    30042    30068 1
   31312    30042    30069 1
   31313    30043    30044 1
   31314    30043    30070 1
   31315    30043    30071 1
   31316    30044    30045 1
   31317    30044    30072 1
   31318    30044    30073 1
   31319    30045    30046 1
   31320    30045    30074 1
   31321    30045    30075 1
   31322    30046    30047 1
   31323    30046    30076 1
   31324    30046    30077 1
   31325    30047    30078 1
   31326    30047    30079 1
   31327    30047    30080 1
   31328    30081    30082 1
   31329    30081    30097 1
   31330    30081    30098 1
   31331    30082    30083 1
   31332    30082    30089 1
   31333    30082    30099 1
   31334    30083    30084 1
   31335    30083    30100 1
   31336    30083    30101 1
   31337    30084    30085 1
   31338    30084    30102 1
   31339    30084    30103 1
   31340    30085    30086 1
   31341    30085    30104 1
   31342    30085    30105 1
   31343    30086    30087 1
   31344    30086    30106 1
   31345    30086    30107 1
   31346    30087    30088 1
   31347    30087    30108 1
   31348    30087    30109 1
   31349    30088    30110 1
   31350    30088    30111 1
   31351    30088    30112 1
   31352    30089    30090 1
   31353    30089    30113 1
   31354    30089    30114 1
   31355    30090    30091 1
   31356    30090    30115 1
   31357    30090    30116 1
   31358    30091    30092 1
   31359    30091    30117 1
   31360    30091    30118 1
   31361    30092    30093 1
   31362    30092    30119 1
   31363    30092    30120 1
   31364    30093    30094 1
   31365    30093    30121 1
   31366    30093    30122 1
   31367    30094    30095 1
   31368    30094    30123 1
   31369    30094    30124 1
   31370    30095    30096 1
   31371    30095    30125 1
   31372    30095    30126 1
   31373    30096    30127 1
   31374    30096    30128 1
   31375    30096    30129 1
   31376    30130    30131 1
   31377    30130    30137 1
   31378    30130    30153 1
   31379    30130    30202 1
   31380    30131    30132 1
   31381    30131    30135 1
   31382    30132    30133 1
   31383    30132    30136 1
   31384    30133    30134 1
   31385    30134    30135 1
   31386    30135    30141 1
   31387    30136    30137 1
   31388    30136    30140 1
   31389    30137    30138 1
   31390    30138    30139 1
   31391    30138    30142 1
   31392    30139    30140 1
   31393    30139    30145 1
   31394    30143    30144 1
   31395    30143    30151 1
   31396    30144    30145 1
   31397    30144    30152 1
   31398    30145    30146 1
   31399    30146    30147 1
   31400    30146    30150 1
   31401    30147    30148 1
   31402    30148    30149 1
   31403    30149    30150 1
   31404    30150    30151 1
   31405    30151    30252 1
   31406    30153    30154 1
   31407    30153    30169 1
   31408    30153    30170 1
   31409    30154    30155 1
   31410    30154    30161 1
   31411    30154    30171 1
   31412    30155    30156 1
   31413    30155    30172 1
   31414    30155    30173 1
   31415    30156    30157 1
   31416    30156    30174 1
   31417    30156    30175 1
   31418    30157    30158 1
   31419    30157    30176 1
   31420    30157    30177 1
   31421    30158    30159 1
   31422    30158    30178 1
   31423    30158    30179 1
   31424    30159    30160 1
   31425    30159    30180 1
   31426    30159    30181 1
   31427    30160    30182 1
   31428    30160    30183 1
   31429    30160    30184 1
   31430    30161    30162 1
   31431    30161    30185 1
   31432    30161    30186 1
   31433    30162    30163 1
   31434    30162    30187 1
   31435    30162    30188 1
   31436    30163    30164 1
   31437    30163    30189 1
   31438    30163    30190 1
   31439    30164    30165 1
   31440    30164    30191 1
   31441    30164    30192 1
   31442    30165    30166 1
   31443    30165    30193 1
   31444    30165    30194 1
   31445    30166    30167 1
   31446    30166    30195 1
   31447    30166    30196 1
   31448    30167    30168 1
   31449    30167    30197 1
   31450    30167    30198 1
   31451    30168    30199 1
   31452    30168    30200 1
   31453    30168    30201 1
   31454    30202    30203 1
   31455    30202    30218 1
   31456    30202    30219 1
   31457    30203    30204 1
   31458    30203    30210 1
   31459    30203    30220 1
   31460    30204    30205 1
   31461    30204    30221 1
   31462    30204    30222 1
   31463    30205    30206 1
   31464    30205    30223 1
   31465    30205    30224 1
   31466    30206    30207 1
   31467    30206    30225 1
   31468    30206    30226 1
   31469    30207    30208 1
   31470    30207    30227 1
   31471    30207    30228 1
   31472    30208    30209 1
   31473    30208    30229 1
   31474    30208    30230 1
   31475    30209    30231 1
   31476    30209    30232 1
   31477    30209    30233 1
   31478    30210    30211 1
   31479    30210    30234 1
   31480    30210    30235 1
   31481    30211    30212 1
   31482    30211    30236 1
   31483    30211    30237 1
   31484    30212    30213 1
   31485    30212    30238 1
   31486    30212    30239 1
   31487    30213    30214 1
   31488    30213    30240 1
   31489    30213    30241 1
   31490    30214    30215 1
   31491    30214    30242 1
   31492    30214    30243 1
   31493    30215    30216 1
   31494    30215    30244 1
   31495    30215    30245 1
   31496    30216    30217 1
   31497    30216    30246 1
   31498    30216    30247 1
   31499    30217    30248 1
   31500    30217    30249 1
   31501    30217    30250 1
@<TRIPOS>SUBSTRUCTURE
       1 RES             1 RESIDUE    0 **** ROOT      0
