@<TRIPOS>MOLECULE
RES
30502 31751 1 0 1
SMALL
NO_CHARGES
@<TRIPOS>CRYSIN
  770.8966   559.7285   885.7915    90.0000    90.0000    90.0000 1 1
@<TRIPOS>ATOM
       1 C0          10.0652    10.6549     9.0553 C0            1 RES     
       2 C0           8.9109    11.0930     9.9573 C0            1 RES     
       3 C0           9.2282    10.9602    11.2676 C0            1 RES     
       4 S1           8.0197    11.4853    12.2998 S1            1 RES     
       5 C0           7.0006    11.9242    11.0072 C0            1 RES     
       6 C0           7.6643    11.6928     9.7903 C0            1 RES     
       7 C0          10.5886    10.5634    11.3878 C0            1 RES     
       8 C0          11.0931    10.4536    10.1795 C0            1 RES     
       9 C0          12.5375    10.3187    10.2145 C0            1 RES     
      10 C0          12.9950    10.3154    11.5235 C0            1 RES     
      11 S1          11.7023    10.4512    12.7752 S1            1 RES     
      12 H2           7.2606    12.0082     8.8519 H2            1 RES     
      13 H2          13.1915    10.3681     9.3610 H2            1 RES     
      14 N3           3.4819    12.8994    10.0813 N3            1 RES     
      15 C0           4.7503    12.4024    10.0223 C0            1 RES     
      16 C0           5.6314    12.4950    11.1185 C0            1 RES     
      17 C0           5.1378    13.1123    12.2798 C0            1 RES     
      18 N3           5.8537    13.2865    13.4227 N3            1 RES     
      19 S1           4.7812    14.0806    14.3994 S1            1 RES     
      20 N3           3.4276    14.2291    13.4647 N3            1 RES     
      21 C0           3.8154    13.6305    12.3092 C0            1 RES     
      22 C0           2.9954    13.5130    11.1946 C0            1 RES     
      23 H4           5.0620    11.9017     9.1227 H4            1 RES     
      24 C5           2.8734    16.8361     6.3172 C5            1 RES     
      25 C5           4.2458    16.6319     6.9607 C5            1 RES     
      26 C5           4.5752    15.1591     7.2623 C5            1 RES     
      27 C5           4.6323    14.2574     6.0134 C5            1 RES     
      28 C5           5.0191    12.8208     6.4053 C5            1 RES     
      29 C5           4.8837    11.8302     5.2402 C5            1 RES     
      30 C5           5.1936    10.3741     5.6620 C5            1 RES     
      31 C5           6.7103    10.0190     5.7545 C5            1 RES     
      32 C5           7.2428     9.5823     7.1541 C5            1 RES     
      33 C5           6.5166     8.3163     7.6953 C5            1 RES     
      34 C5           6.5692     8.2184     9.2314 C5            1 RES     
      35 C5           5.4516     7.3045     9.7782 C5            1 RES     
      36 C5           5.3285     7.4373    11.3069 C5            1 RES     
      37 C5           4.0520     6.7904    11.8739 C5            1 RES     
      38 C5           4.0058     5.2750    11.7127 C5            1 RES     
      39 C5           8.7957     9.4380     7.0438 C5            1 RES     
      40 C0           9.8259     9.3124     8.2316 C0            1 RES     
      41 C5          11.1661     8.7873     7.5556 C5            1 RES     
      42 C5          11.4533     7.2634     7.7694 C5            1 RES     
      43 C5          12.1981     6.9466     9.1081 C5            1 RES     
      44 C5          13.7009     7.3118     9.1383 C5            1 RES     
      45 C5          14.3627     7.1610    10.5201 C5            1 RES     
      46 C5          14.5640     5.7122    11.0038 C5            1 RES     
      47 C5          15.4987     4.8530    10.1251 C5            1 RES     
      48 C5          16.9170     5.4202    10.0047 C5            1 RES     
      49 C5          12.1083     6.5676     6.5300 C5            1 RES     
      50 C5          13.2832     7.2988     5.8304 C5            1 RES     
      51 C5          13.9904     6.4328     4.7634 C5            1 RES     
      52 C5          13.0711     5.9644     3.6194 C5            1 RES     
      53 C5          13.7987     5.1112     2.5608 C5            1 RES     
      54 C5          14.8462     5.9007     1.7519 C5            1 RES     
      55 C5          15.5737     5.0484     0.6965 C5            1 RES     
      56 C5          14.6543     4.5103    -0.4009 C5            1 RES     
      57 H6           2.8287    16.3625     5.3156 H6            1 RES     
      58 H6           2.6868    17.9234     6.1867 H6            1 RES     
      59 H6           2.0738    16.4154     6.9632 H6            1 RES     
      60 H6           5.0287    17.0669     6.3038 H6            1 RES     
      61 H6           4.2554    17.1874     7.9247 H6            1 RES     
      62 H6           5.5622    15.1313     7.7730 H6            1 RES     
      63 H6           3.8116    14.7618     7.9670 H6            1 RES     
      64 H6           5.3711    14.6544     5.2834 H6            1 RES     
      65 H6           3.6286    14.2405     5.5390 H6            1 RES     
      66 H6           6.0518    12.8100     6.8149 H6            1 RES     
      67 H6           4.3023    12.4883     7.1815 H6            1 RES     
      68 H6           3.8176    11.8647     4.9234 H6            1 RES     
      69 H6           5.5068    12.1239     4.3682 H6            1 RES     
      70 H6           4.6245    10.1548     6.5879 H6            1 RES     
      71 H6           4.7737     9.7159     4.8719 H6            1 RES     
      72 H6           7.2783    10.9188     5.4273 H6            1 RES     
      73 H6           6.9444     9.2264     5.0111 H6            1 RES     
      74 H6           6.9538    10.4051     7.7689 H6            1 RES     
      75 H6           5.4446     8.4251     7.4573 H6            1 RES     
      76 H6           6.8447     7.3816     7.1912 H6            1 RES     
      77 H6           7.5763     7.9123     9.5854 H6            1 RES     
      78 H6           6.3474     9.2300     9.6313 H6            1 RES     
      79 H6           5.6185     6.2500     9.4706 H6            1 RES     
      80 H6           4.4850     7.6489     9.3476 H6            1 RES     
      81 H6           6.2339     7.0294    11.8041 H6            1 RES     
      82 H6           5.2545     8.5198    11.5558 H6            1 RES     
      83 H6           3.1584     7.2391    11.3851 H6            1 RES     
      84 H6           3.9967     7.0238    12.9594 H6            1 RES     
      85 H6           4.8721     4.8099    12.2277 H6            1 RES     
      86 H6           4.0079     4.9881    10.6415 H6            1 RES     
      87 H6           3.0702     4.8899    12.1725 H6            1 RES     
      88 H6           9.1749    10.3073     6.4617 H6            1 RES     
      89 H6           8.9163     8.5370     6.3980 H6            1 RES     
      90 H6          11.0887     8.9677     6.4628 H6            1 RES     
      91 H6          12.0585     9.3845     7.7886 H6            1 RES     
      92 H6          10.4605     6.7659     7.8622 H6            1 RES     
      93 H6          11.6647     7.4736     9.9287 H6            1 RES     
      94 H6          12.1223     5.8561     9.3068 H6            1 RES     
      95 H6          14.2713     6.6991     8.4189 H6            1 RES     
      96 H6          13.8141     8.3644     8.8402 H6            1 RES     
      97 H6          15.3555     7.6571    10.4904 H6            1 RES     
      98 H6          13.7573     7.7094    11.2697 H6            1 RES     
      99 H6          13.5785     5.2084    11.0836 H6            1 RES     
     100 H6          15.0016     5.7546    12.0256 H6            1 RES     
     101 H6          15.0705     4.7184     9.1108 H6            1 RES     
     102 H6          15.5732     3.8469    10.5914 H6            1 RES     
     103 H6          17.3735     5.5442    11.0098 H6            1 RES     
     104 H6          17.5471     4.7214     9.4148 H6            1 RES     
     105 H6          16.9170     6.3960     9.4772 H6            1 RES     
     106 H6          11.3159     6.4655     5.7585 H6            1 RES     
     107 H6          12.4095     5.5403     6.8305 H6            1 RES     
     108 H6          14.0667     7.5997     6.5404 H6            1 RES     
     109 H6          12.9166     8.2303     5.3546 H6            1 RES     
     110 H6          14.8147     7.0489     4.3488 H6            1 RES     
     111 H6          14.4386     5.5425     5.2572 H6            1 RES     
     112 H6          12.5958     6.8399     3.1265 H6            1 RES     
     113 H6          12.2712     5.3260     4.0492 H6            1 RES     
     114 H6          14.2782     4.2369     3.0536 H6            1 RES     
     115 H6          13.0223     4.7341     1.8634 H6            1 RES     
     116 H6          15.6258     6.2897     2.4376 H6            1 RES     
     117 H6          14.3569     6.7649     1.2517 H6            1 RES     
     118 H6          16.3420     5.6887     0.2105 H6            1 RES     
     119 H6          16.0948     4.2000     1.1907 H6            1 RES     
     120 H6          13.9040     3.8061     0.0115 H6            1 RES     
     121 H6          15.2611     3.9572    -1.1489 H6            1 RES     
     122 H6          14.1357     5.3470    -0.9147 H6            1 RES     
     123 C0          -1.2799    15.8662     9.6066 C0            1 RES     
     124 C0          -2.0848    16.3272    10.8221 C0            1 RES     
     125 C0          -1.6492    15.7332    11.9591 C0            1 RES     
     126 S1          -2.4575    16.2509    13.3303 S1            1 RES     
     127 C0          -3.4437    17.3168    12.4397 C0            1 RES     
     128 C0          -3.0720    17.2748    11.0851 C0            1 RES     
     129 C0          -0.4950    14.9528    11.6736 C0            1 RES     
     130 C0          -0.2302    15.0642    10.3914 C0            1 RES     
     131 C0           1.0773    14.5245    10.0676 C0            1 RES     
     132 C0           1.6865    14.0098    11.2020 C0            1 RES     
     133 S1           0.7012    14.1311    12.7089 S1            1 RES     
     134 H2          -3.4755    17.9512    10.3621 H2            1 RES     
     135 H2           1.5841    14.6355     9.1245 H2            1 RES     
     136 N3          -6.5322    19.4685    12.5843 N3            1 RES     
     137 C0          -5.5222    18.6749    12.1267 C0            1 RES     
     138 C0          -4.5159    18.1910    12.9867 C0            1 RES     
     139 C0          -4.6086    18.5541    14.3405 C0            1 RES     
     140 N3          -3.7228    18.1776    15.3010 N3            1 RES     
     141 S1          -4.3227    18.9191    16.6519 S1            1 RES     
     142 N3          -5.6672    19.7090    16.1074 N3            1 RES     
     143 C0          -5.6661    19.3910    14.7873 C0            1 RES     
     144 C0          -6.6263    19.8403    13.8902 C0            1 RES     
     145 H4          -5.5238    18.3929    11.0886 H4            1 RES     
     146 C5          -6.3210    24.3390    10.0804 C5            1 RES     
     147 C5          -5.0183    23.5782    10.3322 C5            1 RES     
     148 C5          -5.1576    22.0512    10.1993 C5            1 RES     
     149 C5          -5.5787    21.5765     8.7945 C5            1 RES     
     150 C5          -5.6398    20.0401     8.7426 C5            1 RES     
     151 C5          -6.2582    19.5138     7.4396 C5            1 RES     
     152 C5          -6.3932    17.9724     7.4287 C5            1 RES     
     153 C5          -5.0833    17.1943     7.0916 C5            1 RES     
     154 C5          -4.5353    16.2359     8.1936 C5            1 RES     
     155 C5          -5.5570    15.1247     8.5734 C5            1 RES     
     156 C5          -5.3251    14.5709     9.9917 C5            1 RES     
     157 C5          -6.5943    13.8899    10.5472 C5            1 RES     
     158 C5          -6.4507    13.5985    12.0519 C5            1 RES     
     159 C5          -7.7766    13.2003    12.7247 C5            1 RES     
     160 C5          -8.3453    11.8755    12.2287 C5            1 RES     
     161 C5          -3.1500    15.6996     7.7057 C5            1 RES     
     162 C0          -2.0642    14.9476     8.5678 C0            1 RES     
     163 C5          -1.0830    14.2886     7.5039 C5            1 RES     
     164 C5          -1.2909    12.7525     7.2855 C5            1 RES     
     165 C5          -0.5136    11.8618     8.3100 C5            1 RES     
     166 C5           1.0137    11.7642     8.0853 C5            1 RES     
     167 C5           1.7747    11.0359     9.2081 C5            1 RES     
     168 C5           1.5495     9.5136     9.2819 C5            1 RES     
     169 C5           2.0130     8.7226     8.0395 C5            1 RES     
     170 C5           3.5075     8.8775     7.7386 C5            1 RES     
     171 C5          -1.0846    12.2951     5.8031 C5            1 RES     
     172 C5           0.1560    12.8377     5.0475 C5            1 RES     
     173 C5           0.3786    12.1596     3.6767 C5            1 RES     
     174 C5          -0.7948    12.3248     2.6922 C5            1 RES     
     175 C5          -0.5476    11.6502     1.3278 C5            1 RES     
     176 C5           0.5781    12.3139     0.5110 C5            1 RES     
     177 C5           0.8259    11.6392    -0.8502 C5            1 RES     
     178 C5          -0.3642    11.7271    -1.8068 C5            1 RES     
     179 H6          -6.6603    24.2118     9.0324 H6            1 RES     
     180 H6          -6.1525    25.4234    10.2529 H6            1 RES     
     181 H6          -7.1160    23.9903    10.7733 H6            1 RES     
     182 H6          -4.2358    23.9478     9.6361 H6            1 RES     
     183 H6          -4.6899    23.8011    11.3716 H6            1 RES     
     184 H6          -4.1745    21.5988    10.4535 H6            1 RES     
     185 H6          -5.9030    21.6966    10.9451 H6            1 RES     
     186 H6          -4.8601    21.9453     8.0303 H6            1 RES     
     187 H6          -6.5871    21.9822     8.5679 H6            1 RES     
     188 H6          -4.6226    19.6200     8.8948 H6            1 RES     
     189 H6          -6.3099    19.7107     9.5606 H6            1 RES     
     190 H6          -7.2857    19.9378     7.3882 H6            1 RES     
     191 H6          -5.7017    19.8622     6.5431 H6            1 RES     
     192 H6          -6.8671    17.6611     8.3815 H6            1 RES     
     193 H6          -7.1142    17.7201     6.6223 H6            1 RES     
     194 H6          -4.3007    17.9527     6.8643 H6            1 RES     
     195 H6          -5.2322    16.6216     6.1506 H6            1 RES     
     196 H6          -4.4456    16.8892     9.0324 H6            1 RES     
     197 H6          -6.5543    15.5952     8.6152 H6            1 RES     
     198 H6          -5.6318    14.3257     7.8044 H6            1 RES     
     199 H6          -4.4376    13.9043    10.0281 H6            1 RES     
     200 H6          -5.1401    15.4408    10.6561 H6            1 RES     
     201 H6          -6.8317    12.9692     9.9724 H6            1 RES     
     202 H6          -7.4420    14.6025    10.4381 H6            1 RES     
     203 H6          -5.6718    12.8256    12.2230 H6            1 RES     
     204 H6          -6.1255    14.5358    12.5568 H6            1 RES     
     205 H6          -8.5298    14.0047    12.5684 H6            1 RES     
     206 H6          -7.5986    13.1115    13.8184 H6            1 RES     
     207 H6          -7.6193    11.0561    12.4121 H6            1 RES     
     208 H6          -8.5888    11.9262    11.1480 H6            1 RES     
     209 H6          -9.2814    11.6521    12.7844 H6            1 RES     
     210 H6          -2.5894    16.5578     7.2727 H6            1 RES     
     211 H6          -3.4271    15.0312     6.8573 H6            1 RES     
     212 H6          -1.2486    14.7950     6.5298 H6            1 RES     
     213 H6          -0.0197    14.5153     7.6627 H6            1 RES     
     214 H6          -2.3692    12.5498     7.4807 H6            1 RES     
     215 H6          -0.7212    12.2533     9.3294 H6            1 RES     
     216 H6          -0.9184    10.8283     8.2603 H6            1 RES     
     217 H6           1.2416    11.2543     7.1333 H6            1 RES     
     218 H6           1.4269    12.7816     8.0237 H6            1 RES     
     219 H6           2.8614    11.2188     9.0722 H6            1 RES     
     220 H6           1.4971    11.4880    10.1816 H6            1 RES     
     221 H6           0.4742     9.3069     9.4617 H6            1 RES     
     222 H6           2.1150     9.1303    10.1597 H6            1 RES     
     223 H6           1.4267     9.0169     7.1451 H6            1 RES     
     224 H6           1.8140     7.6457     8.2288 H6            1 RES     
     225 H6           4.1154     8.5683     8.6154 H6            1 RES     
     226 H6           3.7806     8.2342     6.8755 H6            1 RES     
     227 H6           3.7574     9.9236     7.4675 H6            1 RES     
     228 H6          -1.9659    12.6504     5.2280 H6            1 RES     
     229 H6          -1.1025    11.1836     5.7796 H6            1 RES     
     230 H6           1.0862    12.6846     5.6128 H6            1 RES     
     231 H6           0.0564    13.9314     4.8976 H6            1 RES     
     232 H6           1.2939    12.6122     3.2427 H6            1 RES     
     233 H6           0.5705    11.0754     3.8348 H6            1 RES     
     234 H6          -1.0167    13.4028     2.5376 H6            1 RES     
     235 H6          -1.6926    11.8405     3.1299 H6            1 RES     
     236 H6          -0.3214    10.5721     1.4817 H6            1 RES     
     237 H6          -1.4948    11.7280     0.7549 H6            1 RES     
     238 H6           1.5306    12.2496     1.0749 H6            1 RES     
     239 H6           0.3384    13.3877     0.3500 H6            1 RES     
     240 H6           1.6870    12.1506    -1.3334 H6            1 RES     
     241 H6           1.0997    10.5727    -0.6983 H6            1 RES     
     242 H6          -1.2400    11.1738    -1.4121 H6            1 RES     
     243 H6          -0.0866    11.2699    -2.7802 H6            1 RES     
     244 H6          -0.6423    12.7880    -1.9805 H6            1 RES     
     245 C0         -10.0561    23.6579    13.9008 C0            1 RES     
     246 C0         -10.4835    23.9499    15.3396 C0            1 RES     
     247 C0         -10.1148    22.9518    16.1781 C0            1 RES     
     248 S1         -10.5048    23.2509    17.7781 S1            1 RES     
     249 C0         -11.1959    24.7631    17.4069 C0            1 RES     
     250 C0         -11.0530    25.0166    16.0320 C0            1 RES     
     251 C0          -9.3372    21.9975    15.4659 C0            1 RES     
     252 C0          -9.2330    22.4001    14.2194 C0            1 RES     
     253 C0          -8.2378    21.6339    13.4926 C0            1 RES     
     254 C0          -7.6813    20.6602    14.3081 C0            1 RES     
     255 S1          -8.3489    20.6072    15.9837 S1            1 RES     
     256 H2         -11.3063    25.9598    15.5970 H2            1 RES     
     257 H2          -7.8605    21.8688    12.5123 H2            1 RES     
     258 N3         -13.3426    27.5558    18.7419 N3            1 RES     
     259 C0         -12.7280    26.6803    17.8962 C0            1 RES     
     260 C0         -11.8292    25.7034    18.3700 C0            1 RES     
     261 C0         -11.6054    25.6652    19.7562 C0            1 RES     
     262 N3         -10.7693    24.7909    20.3772 N3            1 RES     
     263 S1         -10.8935    25.2420    21.9634 S1            1 RES     
     264 N3         -11.9618    26.5013    21.9357 N3            1 RES     
     265 C0         -12.2515    26.5967    20.6124 C0            1 RES     
     266 C0         -13.1238    27.5399    20.0852 C0            1 RES     
     267 H4         -12.9686    26.7268    16.8488 H4            1 RES     
     268 C5         -11.8801    32.6805    17.4634 C5            1 RES     
     269 C5         -10.8821    31.5451    17.2305 C5            1 RES     
     270 C5         -11.5374    30.2276    16.7795 C5            1 RES     
     271 C5         -12.2848    30.3233    15.4347 C5            1 RES     
     272 C5         -12.8589    28.9514    15.0405 C5            1 RES     
     273 C5         -13.7932    29.0256    13.8245 C5            1 RES     
     274 C5         -14.4323    27.6580    13.4846 C5            1 RES     
     275 C5         -13.5159    26.6772    12.6889 C5            1 RES     
     276 C5         -13.1682    25.3247    13.3839 C5            1 RES     
     277 C5         -14.4369    24.4852    13.7138 C5            1 RES     
     278 C5         -14.2055    23.4988    14.8738 C5            1 RES     
     279 C5         -15.5376    23.0708    15.5261 C5            1 RES     
     280 C5         -15.2894    22.3238    16.8490 C5            1 RES     
     281 C5         -16.5641    22.1358    17.6911 C5            1 RES     
     282 C5         -17.6038    21.2300    17.0406 C5            1 RES     
     283 C5         -12.1224    24.5878    12.4852 C5            1 RES     
     284 C0         -11.2382    23.3428    12.8804 C0            1 RES     
     285 C5         -10.6909    22.7760    11.4991 C5            1 RES     
     286 C5         -11.4252    21.4945    10.9806 C5            1 RES     
     287 C5         -10.8521    20.1620    11.5665 C5            1 RES     
     288 C5          -9.4913    19.7091    10.9872 C5            1 RES     
     289 C5          -8.8657    18.5009    11.7076 C5            1 RES     
     290 C5          -9.5707    17.1514    11.4727 C5            1 RES     
     291 C5          -9.5750    16.6617    10.0084 C5            1 RES     
     292 C5          -8.1717    16.4710     9.4233 C5            1 RES     
     293 C5         -11.5925    21.4522     9.4251 C5            1 RES     
     294 C5         -10.3610    21.8204     8.5577 C5            1 RES     
     295 C5         -10.5706    21.5392     7.0525 C5            1 RES     
     296 C5         -11.7484    22.3082     6.4242 C5            1 RES     
     297 C5         -11.9331    22.0214     4.9204 C5            1 RES     
     298 C5         -10.7771    22.5505     4.0493 C5            1 RES     
     299 C5         -10.9608    22.2625     2.5483 C5            1 RES     
     300 C5         -12.1759    22.9574     1.9321 C5            1 RES     
     301 H6         -12.3858    32.9663    16.5189 H6            1 RES     
     302 H6         -11.3388    33.5737    17.8419 H6            1 RES     
     303 H6         -12.6402    32.3826    18.2164 H6            1 RES     
     304 H6         -10.1270    31.8666    16.4820 H6            1 RES     
     305 H6         -10.3560    31.3523    18.1917 H6            1 RES     
     306 H6         -10.7349    29.4633    16.6929 H6            1 RES     
     307 H6         -12.2459    29.8949    17.5700 H6            1 RES     
     308 H6         -11.5992    30.6818    14.6361 H6            1 RES     
     309 H6         -13.1226    31.0439    15.5423 H6            1 RES     
     310 H6         -12.0282    28.2369    14.8573 H6            1 RES     
     311 H6         -13.4788    28.5994    15.8883 H6            1 RES     
     312 H6         -14.6182    29.7171    14.1063 H6            1 RES     
     313 H6         -13.2842    29.4499    12.9324 H6            1 RES     
     314 H6         -14.8441    27.2279    14.4198 H6            1 RES     
     315 H6         -15.3016    27.8662    12.8252 H6            1 RES     
     316 H6         -12.5660    27.2167    12.4747 H6            1 RES     
     317 H6         -13.9768    26.4710    11.6986 H6            1 RES     
     318 H6         -12.7501    25.6511    14.3097 H6            1 RES     
     319 H6         -15.2052    25.1835    14.0879 H6            1 RES     
     320 H6         -14.8797    24.0011    12.8167 H6            1 RES     
     321 H6         -13.5937    22.6294    14.5527 H6            1 RES     
     322 H6         -13.6511    24.0474    15.6638 H6            1 RES     
     323 H6         -16.1452    22.4643    14.8208 H6            1 RES     
     324 H6         -16.1072    23.9923    15.7803 H6            1 RES     
     325 H6         -14.7953    21.3483    16.6549 H6            1 RES     
     326 H6         -14.6042    22.9413    17.4723 H6            1 RES     
     327 H6         -17.0216    23.1285    17.9008 H6            1 RES     
     328 H6         -16.2741    21.6845    18.6648 H6            1 RES     
     329 H6         -17.1729    20.2234    16.8592 H6            1 RES     
     330 H6         -17.9656    21.6611    16.0851 H6            1 RES     
     331 H6         -18.4733    21.1265    17.7250 H6            1 RES     
     332 H6         -11.3753    25.3412    12.1498 H6            1 RES     
     333 H6         -12.7217    24.3031    11.5889 H6            1 RES     
     334 H6         -10.8138    23.5705    10.7333 H6            1 RES     
     335 H6          -9.6014    22.6377    11.4628 H6            1 RES     
     336 H6         -12.4709    21.5553    11.3608 H6            1 RES     
     337 H6         -10.7729    20.2799    12.6690 H6            1 RES     
     338 H6         -11.5797    19.3458    11.3694 H6            1 RES     
     339 H6          -9.5814    19.4576     9.9162 H6            1 RES     
     340 H6          -8.7768    20.5408    11.0734 H6            1 RES     
     341 H6          -7.8104    18.4023    11.3771 H6            1 RES     
     342 H6          -8.8381    18.7073    12.7966 H6            1 RES     
     343 H6         -10.6172    17.2122    11.8367 H6            1 RES     
     344 H6          -9.0472    16.3851    12.0861 H6            1 RES     
     345 H6         -10.1497    17.3572     9.3632 H6            1 RES     
     346 H6         -10.0915    15.6780     9.9808 H6            1 RES     
     347 H6          -7.5843    15.7609    10.0435 H6            1 RES     
     348 H6          -8.2514    16.0589     8.3951 H6            1 RES     
     349 H6          -7.6294    17.4362     9.3549 H6            1 RES     
     350 H6         -12.3772    22.1930     9.1626 H6            1 RES     
     351 H6         -11.9813    20.4482     9.1473 H6            1 RES     
     352 H6          -9.4648    21.2535     8.8471 H6            1 RES     
     353 H6         -10.1119    22.8918     8.6937 H6            1 RES     
     354 H6          -9.6274    21.8225     6.5415 H6            1 RES     
     355 H6         -10.7293    20.4480     6.9057 H6            1 RES     
     356 H6         -11.6193    23.4011     6.5797 H6            1 RES     
     357 H6         -12.6853    21.9899     6.9273 H6            1 RES     
     358 H6         -12.0583    20.9275     4.7632 H6            1 RES     
     359 H6         -12.8711    22.5265     4.6100 H6            1 RES     
     360 H6          -9.8309    22.0588     4.3530 H6            1 RES     
     361 H6         -10.6669    23.6464     4.2017 H6            1 RES     
     362 H6         -10.0555    22.6292     2.0167 H6            1 RES     
     363 H6         -11.0380    21.1663     2.3812 H6            1 RES     
     364 H6         -13.1212    22.5825     2.3734 H6            1 RES     
     365 H6         -12.2052    22.7463     0.8420 H6            1 RES     
     366 H6         -12.1076    24.0560     2.0781 H6            1 RES     
     367 C0         -15.0547    31.9903    21.7594 C0            1 RES     
     368 C0         -15.1547    31.9563    23.2848 C0            1 RES     
     369 C0         -15.0246    30.6950    23.7618 C0            1 RES     
     370 S1         -15.0647    30.6099    25.4330 S1            1 RES     
     371 C0         -15.2596    32.2949    25.5906 C0            1 RES     
     372 C0         -15.2349    32.8887    24.3172 C0            1 RES     
     373 C0         -14.7157    29.8127    22.6901 C0            1 RES     
     374 C0         -14.6597    30.5160    21.5816 C0            1 RES     
     375 C0         -14.0876    29.7487    20.4910 C0            1 RES     
     376 C0         -13.7773    28.4636    20.9096 C0            1 RES     
     377 S1         -14.1827    28.1126    22.6326 S1            1 RES     
     378 H2         -15.2191    33.9493    24.1830 H2            1 RES     
     379 H2         -13.7950    30.1441    19.5336 H2            1 RES     
     380 N3         -16.1480    35.0602    27.9892 N3            1 RES     
     381 C0         -15.9838    34.3348    26.8464 C0            1 RES     
     382 C0         -15.4033    33.0506    26.8639 C0            1 RES     
     383 C0         -15.0128    32.5470    28.1158 C0            1 RES     
     384 N3         -14.4360    31.3312    28.3107 N3            1 RES     
     385 S1         -14.1797    31.3142    29.9444 S1            1 RES     
     386 N3         -14.7622    32.7736    30.4529 N3            1 RES     
     387 C0         -15.1862    33.3295    29.2888 C0            1 RES     
     388 C0         -15.7609    34.5911    29.2069 C0            1 RES     
     389 H4         -16.3397    34.7514    25.9207 H4            1 RES     
     390 C5         -13.2621    39.7068    27.6474 C5            1 RES     
     391 C5         -12.7407    38.4567    26.9370 C5            1 RES     
     392 C5         -13.8525    37.5688    26.3504 C5            1 RES     
     393 C5         -14.7064    38.2599    25.2691 C5            1 RES     
     394 C5         -15.7526    37.2829    24.7051 C5            1 RES     
     395 C5         -16.7700    37.9692    23.7827 C5            1 RES     
     396 C5         -17.8677    36.9985    23.2858 C5            1 RES     
     397 C5         -17.4499    36.0772    22.0976 C5            1 RES     
     398 C5         -17.4771    34.5400    22.3608 C5            1 RES     
     399 C5         -18.8929    34.0330    22.7626 C5            1 RES     
     400 C5         -18.8418    32.7270    23.5773 C5            1 RES     
     401 C5         -20.1350    32.5194    24.3944 C5            1 RES     
     402 C5         -19.9659    31.3798    25.4154 C5            1 RES     
     403 C5         -21.0994    31.3201    26.4552 C5            1 RES     
     404 C5         -22.4611    30.9749    25.8626 C5            1 RES     
     405 C5         -16.8721    33.8354    21.1030 C5            1 RES     
     406 C0         -16.4051    32.3333    20.9869 C0            1 RES     
     407 C5         -16.2763    32.0656    19.4247 C5            1 RES     
     408 C5         -17.4594    31.2526    18.8004 C5            1 RES     
     409 C5         -17.2848    29.7022    18.9143 C5            1 RES     
     410 C5         -16.2470    29.0751    17.9540 C5            1 RES     
     411 C5         -15.9633    27.5841    18.2123 C5            1 RES     
     412 C5         -17.1018    26.6177    17.8337 C5            1 RES     
     413 C5         -17.4737    26.5999    16.3352 C5            1 RES     
     414 C5         -16.3100    26.2023    15.4212 C5            1 RES     
     415 C5         -17.8475    31.7161    17.3569 C5            1 RES     
     416 C5         -16.6982    31.9602    16.3449 C5            1 RES     
     417 C5         -17.1980    32.2026    14.9027 C5            1 RES     
     418 C5         -18.1296    33.4205    14.7534 C5            1 RES     
     419 C5         -18.6079    33.6504    13.3055 C5            1 RES     
     420 C5         -17.4761    34.0638    12.3447 C5            1 RES     
     421 C5         -17.9534    34.2915    10.8991 C5            1 RES     
     422 C5         -18.9427    35.4486    10.7522 C5            1 RES     
     423 H6         -13.7714    40.3867    26.9346 H6            1 RES     
     424 H6         -12.4077    40.2602    28.0921 H6            1 RES     
     425 H6         -13.9645    39.4279    28.4613 H6            1 RES     
     426 H6         -12.0345    38.7572    26.1341 H6            1 RES     
     427 H6         -12.1791    37.8513    27.6827 H6            1 RES     
     428 H6         -13.3696    36.6700    25.9092 H6            1 RES     
     429 H6         -14.5129    37.2326    27.1800 H6            1 RES     
     430 H6         -14.0599    38.6285    24.4430 H6            1 RES     
     431 H6         -15.2337    39.1226    25.7279 H6            1 RES     
     432 H6         -15.2405    36.4499    24.1778 H6            1 RES     
     433 H6         -16.3288    36.8874    25.5645 H6            1 RES     
     434 H6         -17.2705    38.7507    24.3966 H6            1 RES     
     435 H6         -16.2794    38.4749    22.9233 H6            1 RES     
     436 H6         -18.2635    36.4475    24.1627 H6            1 RES     
     437 H6         -18.7020    37.6262    22.9065 H6            1 RES     
     438 H6         -16.4148    36.3660    21.8071 H6            1 RES     
     439 H6         -18.0872    36.3082    21.2166 H6            1 RES     
     440 H6         -16.8489    34.4499    23.2186 H6            1 RES     
     441 H6         -19.3254    34.7777    23.4526 H6            1 RES     
     442 H6         -19.5925    33.9775    21.9007 H6            1 RES     
     443 H6         -18.6047    31.8543    22.9327 H6            1 RES     
     444 H6         -18.0318    32.8413    24.3278 H6            1 RES     
     445 H6         -21.0020    32.3424    23.7226 H6            1 RES     
     446 H6         -20.3249    33.4475    24.9784 H6            1 RES     
     447 H6         -19.8560    30.4062    24.8926 H6            1 RES     
     448 H6         -19.0344    31.5691    25.9948 H6            1 RES     
     449 H6         -21.1673    32.2946    26.9885 H6            1 RES     
     450 H6         -20.8421    30.5411    27.2055 H6            1 RES     
     451 H6         -22.4186    29.9868    25.3587 H6            1 RES     
     452 H6         -22.7895    31.7502    25.1409 H6            1 RES     
     453 H6         -23.2106    30.9245    26.6816 H6            1 RES     
     454 H6         -15.9721    34.4121    20.7934 H6            1 RES     
     455 H6         -17.6513    34.0060    20.3238 H6            1 RES     
     456 H6         -16.2346    33.0504    18.9135 H6            1 RES     
     457 H6         -15.3110    31.6435    19.1126 H6            1 RES     
     458 H6         -18.3613    31.4909    19.4098 H6            1 RES     
     459 H6         -17.0172    29.4650    19.9668 H6            1 RES     
     460 H6         -18.2621    29.2185    18.7011 H6            1 RES     
     461 H6         -16.5646    29.1840    16.9025 H6            1 RES     
     462 H6         -15.2923    29.6091    18.0689 H6            1 RES     
     463 H6         -15.0580    27.2940    17.6389 H6            1 RES     
     464 H6         -15.7164    27.4463    19.2844 H6            1 RES     
     465 H6         -18.0068    26.8611    18.4280 H6            1 RES     
     466 H6         -16.7819    25.5907    18.1171 H6            1 RES     
     467 H6         -17.8694    27.5859    16.0168 H6            1 RES     
     468 H6         -18.2859    25.8542    16.1958 H6            1 RES     
     469 H6         -15.9108    25.2066    15.7097 H6            1 RES     
     470 H6         -16.6653    26.1489    14.3703 H6            1 RES     
     471 H6         -15.4933    26.9519    15.4598 H6            1 RES     
     472 H6         -18.3705    32.6907    17.4584 H6            1 RES     
     473 H6         -18.5824    30.9892    16.9472 H6            1 RES     
     474 H6         -16.0097    31.1054    16.2844 H6            1 RES     
     475 H6         -16.0911    32.8296    16.6677 H6            1 RES     
     476 H6         -16.2958    32.3458    14.2731 H6            1 RES     
     477 H6         -17.7288    31.2929    14.5448 H6            1 RES     
     478 H6         -17.6246    34.3376    15.1266 H6            1 RES     
     479 H6         -19.0386    33.2458    15.3660 H6            1 RES     
     480 H6         -19.1098    32.7318    12.9296 H6            1 RES     
     481 H6         -19.3588    34.4666    13.3413 H6            1 RES     
     482 H6         -16.7140    33.2595    12.3040 H6            1 RES     
     483 H6         -16.9882    34.9898    12.7200 H6            1 RES     
     484 H6         -17.0619    34.5276    10.2779 H6            1 RES     
     485 H6         -18.4128    33.3602    10.5024 H6            1 RES     
     486 H6         -19.8871    35.2426    11.2951 H6            1 RES     
     487 H6         -19.1929    35.5828     9.6784 H6            1 RES     
     488 H6         -18.4939    36.3907    11.1316 H6            1 RES     
     489 C0         -15.8502    38.7115    32.2649 C0            1 RES     
     490 C0         -15.7410    38.2622    33.7223 C0            1 RES     
     491 C0         -15.9713    36.9333    33.8496 C0            1 RES     
     492 S1         -15.8027    36.3778    35.4195 S1            1 RES     
     493 C0         -15.4031    37.9264    36.0061 C0            1 RES     
     494 C0         -15.3616    38.8349    34.9347 C0            1 RES     
     495 C0         -16.1263    36.3537    32.5602 C0            1 RES     
     496 C0         -15.9960    37.3051    31.6634 C0            1 RES     
     497 C0         -15.8699    36.7620    30.3237 C0            1 RES     
     498 C0         -15.9483    35.3779    30.3496 C0            1 RES     
     499 S1         -16.2014    34.6668    31.9887 S1            1 RES     
     500 H2         -15.0136    39.8390    35.0519 H2            1 RES     
     501 H2         -15.6000    37.3214    29.4445 H2            1 RES     
     502 N3         -14.9777    40.0017    39.1209 N3            1 RES     
     503 C0         -15.2256    39.6270    37.8334 C0            1 RES     
     504 C0         -15.1078    38.2849    37.4193 C0            1 RES     
     505 C0         -14.7351    37.3485    38.3979 C0            1 RES     
     506 N3         -14.5733    36.0180    38.1683 N3            1 RES     
     507 S1         -14.1108    35.4524    39.6519 S1            1 RES     
     508 N3         -14.0985    36.8013    40.6050 N3            1 RES     
     509 C0         -14.4728    37.7692    39.7292 C0            1 RES     
     510 C0         -14.6016    39.1077    40.0758 C0            1 RES     
     511 H4         -15.5491    40.3787    37.1353 H4            1 RES     
     512 C5         -10.7914    43.5370    39.2326 C5            1 RES     
     513 C5         -10.8195    42.4557    38.1513 C5            1 RES     
     514 C5         -12.2336    42.1285    37.6395 C5            1 RES     
     515 C5         -12.9524    43.3167    36.9705 C5            1 RES     
     516 C5         -14.3316    42.8830    36.4445 C5            1 RES     
     517 C5         -15.1823    44.0663    35.9614 C5            1 RES     
     518 C5         -16.5981    43.6332    35.5120 C5            1 RES     
     519 C5         -16.6807    43.0214    34.0788 C5            1 RES     
     520 C5         -17.1794    41.5470    33.9749 C5            1 RES     
     521 C5         -18.6121    41.3642    34.5555 C5            1 RES     
     522 C5         -18.8836    39.9178    35.0095 C5            1 RES     
     523 C5         -20.0443    39.8526    36.0253 C5            1 RES     
     524 C5         -20.1216    38.4648    36.6868 C5            1 RES     
     525 C5         -21.0530    38.4246    37.9117 C5            1 RES     
     526 C5         -22.5209    38.6655    37.5773 C5            1 RES     
     527 C5         -17.0252    41.1010    32.4843 C5            1 RES     
     528 C0         -17.1044    39.6308    31.9185 C0            1 RES     
     529 C5         -17.2921    39.8071    30.3492 C5            1 RES     
     530 C5         -18.7531    39.5794    29.8353 C5            1 RES     
     531 C5         -19.0889    38.0800    29.5417 C5            1 RES     
     532 C5         -18.4635    37.4960    28.2530 C5            1 RES     
     533 C5         -18.6576    35.9780    28.0853 C5            1 RES     
     534 C5         -20.0935    35.5258    27.7580 C5            1 RES     
     535 C5         -20.6563    36.0525    26.4202 C5            1 RES     
     536 C5         -19.8310    35.6294    25.2005 C5            1 RES     
     537 C5         -19.1637    40.5346    28.6656 C5            1 RES     
     538 C5         -18.1525    40.7307    27.5066 C5            1 RES     
     539 C5         -18.7405    41.5148    26.3116 C5            1 RES     
     540 C5         -19.2262    42.9335    26.6646 C5            1 RES     
     541 C5         -19.7991    43.7018    25.4565 C5            1 RES     
     542 C5         -18.7409    44.0425    24.3893 C5            1 RES     
     543 C5         -19.3132    44.8079    23.1826 C5            1 RES     
     544 C5         -19.8726    46.1866    23.5368 C5            1 RES     
     545 H6         -11.1408    44.5101    38.8319 H6            1 RES     
     546 H6          -9.7483    43.6723    39.5900 H6            1 RES     
     547 H6         -11.4251    43.2414    40.0956 H6            1 RES     
     548 H6         -10.1736    42.7667    37.3029 H6            1 RES     
     549 H6         -10.3920    41.5262    38.5887 H6            1 RES     
     550 H6         -12.1434    41.3004    36.9034 H6            1 RES     
     551 H6         -12.8449    41.7642    38.4945 H6            1 RES     
     552 H6         -12.3428    43.7135    36.1295 H6            1 RES     
     553 H6         -13.0937    44.1191    37.7247 H6            1 RES     
     554 H6         -14.2043    42.1319    35.6358 H6            1 RES     
     555 H6         -14.8799    42.4320    37.2947 H6            1 RES     
     556 H6         -15.3037    44.7416    36.8374 H6            1 RES     
     557 H6         -14.6773    44.6420    35.1562 H6            1 RES     
     558 H6         -17.0272    42.9842    36.3019 H6            1 RES     
     559 H6         -17.2212    44.5524    35.4878 H6            1 RES     
     560 H6         -15.6600    43.0792    33.6383 H6            1 RES     
     561 H6         -17.3220    43.6695    33.4430 H6            1 RES     
     562 H6         -16.5030    41.0370    34.6237 H6            1 RES     
     563 H6         -18.6716    41.9645    35.4795 H6            1 RES     
     564 H6         -19.4039    41.7625    33.8848 H6            1 RES     
     565 H6         -19.0424    39.2422    34.1426 H6            1 RES     
     566 H6         -17.9848    39.5749    35.5637 H6            1 RES     
     567 H6         -21.0060    40.1312    35.5438 H6            1 RES     
     568 H6         -19.8315    40.5833    36.8372 H6            1 RES     
     569 H6         -20.4156    37.6970    35.9401 H6            1 RES     
     570 H6         -19.1086    38.2063    37.0692 H6            1 RES     
     571 H6         -20.7182    39.1783    38.6590 H6            1 RES     
     572 H6         -20.9664    37.4208    38.3815 H6            1 RES     
     573 H6         -22.8799    37.8979    36.8604 H6            1 RES     
     574 H6         -22.6712    39.6776    37.1497 H6            1 RES     
     575 H6         -23.1220    38.5905    38.5090 H6            1 RES     
     576 H6         -16.0377    41.4656    32.1234 H6            1 RES     
     577 H6         -17.8047    41.7041    31.9626 H6            1 RES     
     578 H6         -16.9981    40.8450    30.0864 H6            1 RES     
     579 H6         -16.5756    39.2412    29.7380 H6            1 RES     
     580 H6         -19.4300    39.8726    30.6706 H6            1 RES     
     581 H6         -18.7704    37.4800    30.4216 H6            1 RES     
     582 H6         -20.1909    37.9751    29.4472 H6            1 RES     
     583 H6         -18.8712    37.9926    27.3555 H6            1 RES     
     584 H6         -17.3797    37.6820    28.2714 H6            1 RES     
     585 H6         -17.9897    35.6261    27.2712 H6            1 RES     
     586 H6         -18.3227    35.4690    29.0115 H6            1 RES     
     587 H6         -20.7735    35.8287    28.5808 H6            1 RES     
     588 H6         -20.0961    34.4143    27.7141 H6            1 RES     
     589 H6         -20.7429    37.1581    26.4384 H6            1 RES     
     590 H6         -21.6811    35.6402    26.2970 H6            1 RES     
     591 H6         -19.7485    34.5227    25.1510 H6            1 RES     
     592 H6         -20.3274    35.9880    24.2741 H6            1 RES     
     593 H6         -18.8149    36.0735    25.2282 H6            1 RES     
     594 H6         -19.3139    41.5426    29.1070 H6            1 RES     
     595 H6         -20.1480    40.1968    28.2739 H6            1 RES     
     596 H6         -17.8024    39.7735    27.0946 H6            1 RES     
     597 H6         -17.2524    41.2600    27.8782 H6            1 RES     
     598 H6         -17.9396    41.5762    25.5462 H6            1 RES     
     599 H6         -19.5878    40.9374    25.8801 H6            1 RES     
     600 H6         -18.3985    43.5204    27.1181 H6            1 RES     
     601 H6         -20.0463    42.8502    27.4080 H6            1 RES     
     602 H6         -20.6249    43.1134    24.9994 H6            1 RES     
     603 H6         -20.2237    44.6484    25.8501 H6            1 RES     
     604 H6         -18.3026    43.1051    23.9913 H6            1 RES     
     605 H6         -17.9258    44.6419    24.8507 H6            1 RES     
     606 H6         -18.4903    44.9547    22.4494 H6            1 RES     
     607 H6         -20.1064    44.2020    22.6934 H6            1 RES     
     608 H6         -20.7458    46.1050    24.2149 H6            1 RES     
     609 H6         -20.2120    46.6938    22.6088 H6            1 RES     
     610 H6         -19.0881    46.8104    24.0145 H6            1 RES     
     611 C0         -12.8887    42.0039    43.9508 C0            1 RES     
     612 C0         -12.7315    41.1360    45.1999 C0            1 RES     
     613 C0         -13.3696    39.9490    45.0618 C0            1 RES     
     614 S1         -13.1766    38.9344    46.3790 S1            1 RES     
     615 C0         -12.2076    40.0658    47.2055 C0            1 RES     
     616 C0         -12.0175    41.1979    46.3949 C0            1 RES     
     617 C0         -13.8873    39.8401    43.7417 C0            1 RES     
     618 C0         -13.5758    40.9355    43.0863 C0            1 RES     
     619 C0         -13.8262    40.7958    41.6638 C0            1 RES     
     620 C0         -14.3551    39.5451    41.3827 C0            1 RES     
     621 S1         -14.5974    38.4868    42.8241 S1            1 RES     
     622 H2         -11.3433    41.9835    46.6619 H2            1 RES     
     623 H2         -13.5120    41.4883    40.9021 H2            1 RES     
     624 N3         -10.6853    40.9314    50.5406 N3            1 RES     
     625 C0         -11.2214    41.0354    49.2912 C0            1 RES     
     626 C0         -11.6150    39.8968    48.5595 C0            1 RES     
     627 C0         -11.4409    38.6499    49.1825 C0            1 RES     
     628 N3         -11.7637    37.4556    48.6182 N3            1 RES     
     629 S1         -11.3120    36.3745    49.7852 S1            1 RES     
     630 N3         -10.7192    37.3249    50.9989 N3            1 RES     
     631 C0         -10.8699    38.5710    50.4809 C0            1 RES     
     632 C0         -10.4972    39.7292    51.1504 C0            1 RES     
     633 H4         -11.3715    42.0177    48.8792 H4            1 RES     
     634 C5          -5.5911    42.9526    50.5290 C5            1 RES     
     635 C5          -6.1278    42.2887    49.2599 C5            1 RES     
     636 C5          -7.6272    42.5371    49.0180 C5            1 RES     
     637 C5          -7.9972    44.0209    48.8246 C5            1 RES     
     638 C5          -9.5015    44.1663    48.5365 C5            1 RES     
     639 C5          -9.9700    45.6283    48.5475 C5            1 RES     
     640 C5         -11.4975    45.7621    48.3402 C5            1 RES     
     641 C5         -11.9786    45.6455    46.8603 C5            1 RES     
     642 C5         -12.9477    44.4687    46.5300 C5            1 RES     
     643 C5         -14.2634    44.5346    47.3592 C5            1 RES     
     644 C5         -14.9331    43.1561    47.5120 C5            1 RES     
     645 C5         -15.8950    43.1257    48.7191 C5            1 RES     
     646 C5         -16.3351    41.6855    49.0380 C5            1 RES     
     647 C5         -17.0455    41.5522    50.3971 C5            1 RES     
     648 C5         -18.3817    42.2830    50.4677 C5            1 RES     
     649 C5         -13.1609    44.4539    44.9812 C5            1 RES     
     650 C0         -13.8020    43.2981    44.1204 C0            1 RES     
     651 C5         -14.1387    43.9712    42.7195 C5            1 RES     
     652 C5         -15.6492    44.3243    42.5094 C5            1 RES     
     653 C5         -16.5012    43.1343    41.9571 C5            1 RES     
     654 C5         -16.2923    42.8018    40.4609 C5            1 RES     
     655 C5         -17.0007    41.5181    39.9914 C5            1 RES     
     656 C5         -18.5361    41.6043    39.8996 C5            1 RES     
     657 C5         -19.0739    42.6355    38.8840 C5            1 RES     
     658 C5         -18.6154    42.3735    37.4456 C5            1 RES     
     659 C5         -15.8791    45.6551    41.7185 C5            1 RES     
     660 C5         -15.0333    45.8891    40.4402 C5            1 RES     
     661 C5         -15.4891    47.1207    39.6254 C5            1 RES     
     662 C5         -15.4218    48.4506    40.4001 C5            1 RES     
     663 C5         -15.8706    49.6675    39.5659 C5            1 RES     
     664 C5         -14.9200    49.9936    38.3976 C5            1 RES     
     665 C5         -15.3691    51.2071    37.5639 C5            1 RES     
     666 C5         -15.3837    52.5208    38.3469 C5            1 RES     
     667 H6          -5.6502    44.0575    50.4559 H6            1 RES     
     668 H6          -4.5230    42.6784    50.6637 H6            1 RES     
     669 H6          -6.1593    42.6081    51.4190 H6            1 RES     
     670 H6          -5.5410    42.6396    48.3846 H6            1 RES     
     671 H6          -5.9762    41.1910    49.3603 H6            1 RES     
     672 H6          -7.9211    41.9702    48.1080 H6            1 RES     
     673 H6          -8.1986    42.1258    49.8793 H6            1 RES     
     674 H6          -7.4147    44.4582    47.9845 H6            1 RES     
     675 H6          -7.7569    44.5733    49.7572 H6            1 RES     
     676 H6          -9.7454    43.6807    47.5674 H6            1 RES     
     677 H6         -10.0434    43.6595    49.3589 H6            1 RES     
     678 H6          -9.7364    46.0233    49.5612 H6            1 RES     
     679 H6          -9.4208    46.2481    47.8065 H6            1 RES     
     680 H6         -12.0024    45.0585    49.0325 H6            1 RES     
     681 H6         -11.7771    46.7845    48.6723 H6            1 RES     
     682 H6         -11.0690    45.5403    46.2271 H6            1 RES     
     683 H6         -12.4509    46.6043    46.5547 H6            1 RES     
     684 H6         -12.3951    43.6225    46.8722 H6            1 RES     
     685 H6         -13.9901    44.8296    48.3868 H6            1 RES     
     686 H6         -14.9639    45.3175    46.9962 H6            1 RES     
     687 H6         -15.4270    42.8370    46.5700 H6            1 RES     
     688 H6         -14.1308    42.4278    47.7537 H6            1 RES     
     689 H6         -16.7672    43.7917    48.5453 H6            1 RES     
     690 H6         -15.3402    43.4961    49.6097 H6            1 RES     
     691 H6         -16.9688    41.2849    48.2187 H6            1 RES     
     692 H6         -15.4223    41.0525    49.1112 H6            1 RES     
     693 H6         -16.3782    41.9282    51.2046 H6            1 RES     
     694 H6         -17.2320    40.4730    50.5875 H6            1 RES     
     695 H6         -19.0719    41.8922    49.6912 H6            1 RES     
     696 H6         -18.2459    43.3754    50.3335 H6            1 RES     
     697 H6         -18.8367    42.1108    51.4669 H6            1 RES     
     698 H6         -12.1693    44.6151    44.5025 H6            1 RES     
     699 H6         -13.7610    45.3769    44.8041 H6            1 RES     
     700 H6         -13.5568    44.9140    42.6470 H6            1 RES     
     701 H6         -13.7437    43.4314    41.8478 H6            1 RES     
     702 H6         -16.0661    44.5381    43.5204 H6            1 RES     
     703 H6         -16.2799    42.2389    42.5775 H6            1 RES     
     704 H6         -17.5773    43.3760    42.0914 H6            1 RES     
     705 H6         -16.6336    43.6329    39.8197 H6            1 RES     
     706 H6         -15.2170    42.6617    40.2775 H6            1 RES     
     707 H6         -16.6086    41.2469    38.9887 H6            1 RES     
     708 H6         -16.7274    40.6876    40.6732 H6            1 RES     
     709 H6         -18.9546    41.8316    40.9019 H6            1 RES     
     710 H6         -18.9137    40.6020    39.5991 H6            1 RES     
     711 H6         -18.7851    43.6650    39.1790 H6            1 RES     
     712 H6         -20.1840    42.5828    38.9021 H6            1 RES     
     713 H6         -18.9128    41.3534    37.1217 H6            1 RES     
     714 H6         -19.0894    43.1120    36.7649 H6            1 RES     
     715 H6         -17.5163    42.4857    37.3466 H6            1 RES     
     716 H6         -15.6228    46.4894    42.4053 H6            1 RES     
     717 H6         -16.9643    45.7377    41.4908 H6            1 RES     
     718 H6         -15.0822    45.0364    39.7481 H6            1 RES     
     719 H6         -13.9658    46.0111    40.7125 H6            1 RES     
     720 H6         -14.8289    47.1756    38.7354 H6            1 RES     
     721 H6         -16.5316    46.9576    39.2733 H6            1 RES     
     722 H6         -14.3913    48.6216    40.7797 H6            1 RES     
     723 H6         -16.1102    48.3876    41.2686 H6            1 RES     
     724 H6         -16.9004    49.4956    39.1822 H6            1 RES     
     725 H6         -15.8973    50.5369    40.2549 H6            1 RES     
     726 H6         -14.8781    49.1300    37.7035 H6            1 RES     
     727 H6         -13.8960    50.1771    38.7904 H6            1 RES     
     728 H6         -14.6555    51.3245    36.7193 H6            1 RES     
     729 H6         -16.3787    51.0196    37.1383 H6            1 RES     
     730 H6         -16.1302    52.4934    39.1660 H6            1 RES     
     731 H6         -15.6620    53.3515    37.6641 H6            1 RES     
     732 H6         -14.3778    52.7306    38.7678 H6            1 RES     
     733 C0          -7.3948    40.7605    55.1063 C0            1 RES     
     734 C0          -7.3611    39.5576    56.0496 C0            1 RES     
     735 C0          -8.3696    38.6925    55.7856 C0            1 RES     
     736 S1          -8.3417    37.3256    56.7511 S1            1 RES     
     737 C0          -6.9464    37.8453    57.5788 C0            1 RES     
     738 C0          -6.5070    39.0637    57.0336 C0            1 RES     
     739 C0          -9.0739    39.1249    54.6281 C0            1 RES     
     740 C0          -8.5116    40.2302    54.1938 C0            1 RES     
     741 C0          -8.9910    40.5892    52.8720 C0            1 RES     
     742 C0          -9.9388    39.6771    52.4332 C0            1 RES     
     743 S1         -10.3140    38.3562    53.6040 S1            1 RES     
     744 H2          -5.5798    39.5139    57.3178 H2            1 RES     
     745 H2          -8.5749    41.3567    52.2425 H2            1 RES     
     746 N3          -4.7714    37.2323    60.5927 N3            1 RES     
     747 C0          -5.4122    37.8437    59.5559 C0            1 RES     
     748 C0          -6.2598    37.1280    58.6865 C0            1 RES     
     749 C0          -6.4240    35.7571    58.9454 C0            1 RES     
     750 N3          -7.2006    34.9215    58.2054 N3            1 RES     
     751 S1          -6.9744    33.4648    58.9550 S1            1 RES     
     752 N3          -5.9358    33.8116    60.1915 N3            1 RES     
     753 C0          -5.7355    35.1444    60.0265 C0            1 RES     
     754 C0          -4.9095    35.9022    60.8463 C0            1 RES     
     755 H4          -5.2840    38.9043    59.4295 H4            1 RES     
     756 C5           0.6498    37.6506    59.9062 C5            1 RES     
     757 C5          -0.2491    37.5660    58.6716 C5            1 RES     
     758 C5          -1.5993    38.2855    58.8385 C5            1 RES     
     759 C5          -1.4791    39.8023    59.0855 C5            1 RES     
     760 C5          -2.8745    40.4424    59.1858 C5            1 RES     
     761 C5          -2.8248    41.9071    59.6433 C5            1 RES     
     762 C5          -4.2343    42.5197    59.8225 C5            1 RES     
     763 C5          -4.9293    42.9815    58.5038 C5            1 RES     
     764 C5          -6.2702    42.2750    58.1348 C5            1 RES     
     765 C5          -7.3594    42.4626    59.2309 C5            1 RES     
     766 C5          -8.4202    41.3463    59.2044 C5            1 RES     
     767 C5          -9.1584    41.2358    60.5558 C5            1 RES     
     768 C5         -10.0022    39.9499    60.6202 C5            1 RES     
     769 C5         -10.5186    39.6302    62.0346 C5            1 RES     
     770 C5         -11.5126    40.6532    62.5731 C5            1 RES     
     771 C5          -6.6911    42.7747    56.7144 C5            1 RES     
     772 C0          -7.7935    42.1505    55.7747 C0            1 RES     
     773 C5          -8.0805    43.2703    54.6827 C5            1 RES     
     774 C5          -9.4019    44.0793    54.9066 C5            1 RES     
     775 C5         -10.6691    43.3929    54.2982 C5            1 RES     
     776 C5         -10.7944    43.4681    52.7583 C5            1 RES     
     777 C5         -11.9470    42.6314    52.1739 C5            1 RES     
     778 C5         -13.3636    43.1688    52.4531 C5            1 RES     
     779 C5         -13.6654    44.5597    51.8544 C5            1 RES     
     780 C5         -13.5263    44.6123    50.3294 C5            1 RES     
     781 C5          -9.2856    45.5916    54.5212 C5            1 RES     
     782 C5          -8.5981    45.9417    53.1761 C5            1 RES     
     783 C5          -8.7288    47.4340    52.7958 C5            1 RES     
     784 C5          -8.1160    48.4038    53.8240 C5            1 RES     
     785 C5          -8.2477    49.8862    53.4202 C5            1 RES     
     786 C5          -7.4165    50.2589    52.1771 C5            1 RES     
     787 C5          -7.5496    51.7383    51.7731 C5            1 RES     
     788 C5          -7.0174    52.7139    52.8239 C5            1 RES     
     789 H6           0.9512    38.6983    60.1084 H6            1 RES     
     790 H6           1.5740    37.0602    59.7289 H6            1 RES     
     791 H6           0.1302    37.2350    60.7955 H6            1 RES     
     792 H6           0.2920    37.9779    57.7934 H6            1 RES     
     793 H6          -0.4579    36.4908    58.4761 H6            1 RES     
     794 H6          -2.1892    38.1163    57.9116 H6            1 RES     
     795 H6          -2.1481    37.8182    59.6859 H6            1 RES     
     796 H6          -0.9084    40.2840    58.2618 H6            1 RES     
     797 H6          -0.9408    39.9667    60.0426 H6            1 RES     
     798 H6          -3.3991    40.3508    58.2107 H6            1 RES     
     799 H6          -3.4329    39.8910    59.9674 H6            1 RES     
     800 H6          -2.3336    41.9058    60.6417 H6            1 RES     
     801 H6          -2.2106    42.5360    58.9634 H6            1 RES     
     802 H6          -4.8418    41.8160    60.4267 H6            1 RES     
     803 H6          -4.1092    43.4355    60.4384 H6            1 RES     
     804 H6          -4.2045    42.8148    57.6754 H6            1 RES     
     805 H6          -5.0945    44.0799    58.5450 H6            1 RES     
     806 H6          -5.9875    41.2462    58.1364 H6            1 RES     
     807 H6          -6.8625    42.3547    60.2103 H6            1 RES     
     808 H6          -7.8039    43.4813    59.2282 H6            1 RES     
     809 H6          -9.1190    41.4692    58.3501 H6            1 RES     
     810 H6          -7.8796    40.3844    59.0822 H6            1 RES     
     811 H6          -9.7753    42.1406    60.7434 H6            1 RES     
     812 H6          -8.3930    41.1577    61.3597 H6            1 RES     
     813 H6         -10.8411    40.0018    59.8944 H6            1 RES     
     814 H6          -9.3505    39.0933    60.3360 H6            1 RES     
     815 H6          -9.6580    39.5499    62.7359 H6            1 RES     
     816 H6         -11.0240    38.6405    62.0047 H6            1 RES     
     817 H6         -12.3950    40.7173    61.9028 H6            1 RES     
     818 H6         -11.0422    41.6527    62.6707 H6            1 RES     
     819 H6         -11.8541    40.3313    63.5805 H6            1 RES     
     820 H6          -5.7798    42.7833    56.0759 H6            1 RES     
     821 H6          -6.9694    43.8389    56.8977 H6            1 RES     
     822 H6          -7.2350    43.9896    54.7032 H6            1 RES     
     823 H6          -8.0135    42.9210    53.6430 H6            1 RES     
     824 H6          -9.5781    44.0961    56.0068 H6            1 RES     
     825 H6         -10.6728    42.3307    54.6260 H6            1 RES     
     826 H6         -11.5738    43.8770    54.7241 H6            1 RES     
     827 H6         -10.9268    44.5113    52.4228 H6            1 RES     
     828 H6          -9.8634    43.0913    52.3099 H6            1 RES     
     829 H6         -11.8119    42.5667    51.0739 H6            1 RES     
     830 H6         -11.8721    41.5961    52.5633 H6            1 RES     
     831 H6         -13.5380    43.2010    53.5485 H6            1 RES     
     832 H6         -14.0906    42.4469    52.0198 H6            1 RES     
     833 H6         -13.0130    45.3330    52.3089 H6            1 RES     
     834 H6         -14.7158    44.8184    52.1093 H6            1 RES     
     835 H6         -14.1877    43.8584    49.8518 H6            1 RES     
     836 H6         -13.8188    45.6197    49.9648 H6            1 RES     
     837 H6         -12.4777    44.4347    50.0144 H6            1 RES     
     838 H6          -8.6732    46.0811    55.3079 H6            1 RES     
     839 H6         -10.3024    46.0389    54.5695 H6            1 RES     
     840 H6          -9.0238    45.3787    52.3333 H6            1 RES     
     841 H6          -7.5237    45.6733    53.2217 H6            1 RES     
     842 H6          -8.2195    47.5590    51.8180 H6            1 RES     
     843 H6          -9.8047    47.6810    52.6594 H6            1 RES     
     844 H6          -7.0447    48.1592    53.9908 H6            1 RES     
     845 H6          -8.6573    48.2856    54.7858 H6            1 RES     
     846 H6          -9.3191    50.1311    53.2490 H6            1 RES     
     847 H6          -7.8875    50.4867    54.2810 H6            1 RES     
     848 H6          -7.7614    49.6610    51.3095 H6            1 RES     
     849 H6          -6.3453    50.0237    52.3609 H6            1 RES     
     850 H6          -6.9633    51.8920    50.8408 H6            1 RES     
     851 H6          -8.6133    51.9753    51.5542 H6            1 RES     
     852 H6          -7.6080    52.6590    53.7604 H6            1 RES     
     853 H6          -7.0971    53.7511    52.4347 H6            1 RES     
     854 H6          -5.9504    52.4995    53.0444 H6            1 RES     
     855 C0          -1.1185    34.8148    64.1301 C0            1 RES     
     856 C0          -1.3541    33.4299    64.7339 C0            1 RES     
     857 C0          -2.6190    33.0002    64.5093 C0            1 RES     
     858 S1          -2.9112    31.4604    65.0970 S1            1 RES     
     859 C0          -1.3211    31.3008    65.6870 C0            1 RES     
     860 C0          -0.5833    32.4504    65.3569 C0            1 RES     
     861 C0          -3.2947    33.9321    63.6741 C0            1 RES     
     862 C0          -2.4642    34.9113    63.3947 C0            1 RES     
     863 C0          -2.9776    35.7609    62.3363 C0            1 RES     
     864 C0          -4.2260    35.3223    61.9218 C0            1 RES     
     865 S1          -4.8503    33.8779    62.8052 S1            1 RES     
     866 H2           0.4709    32.5180    65.5220 H2            1 RES     
     867 H2          -2.4230    36.5296    61.8264 H2            1 RES     
     868 N3           0.9269    29.2471    67.9047 N3            1 RES     
     869 C0           0.3867    30.2895    67.2111 C0            1 RES     
     870 C0          -0.7634    30.1281    66.4126 C0            1 RES     
     871 C0          -1.3352    28.8455    66.3743 C0            1 RES     
     872 N3          -2.4408    28.5167    65.6541 N3            1 RES     
     873 S1          -2.6082    26.9025    65.9720 S1            1 RES     
     874 N3          -1.3509    26.5655    66.9886 N3            1 RES     
     875 C0          -0.7447    27.7756    67.0987 C0            1 RES     
     876 C0           0.3922    27.9961    67.8651 C0            1 RES     
     877 H4           0.8406    31.2597    67.3104 H4            1 RES     
     878 C5           6.0266    28.3058    66.1318 C5            1 RES     
     879 C5           4.9869    28.8426    65.1468 C5            1 RES     
     880 C5           3.9895    29.8310    65.7769 C5            1 RES     
     881 C5           4.6397    31.1112    66.3376 C5            1 RES     
     882 C5           3.5646    32.0592    66.8964 C5            1 RES     
     883 C5           4.1613    33.2501    67.6599 C5            1 RES     
     884 C5           3.0748    34.1538    68.2900 C5            1 RES     
     885 C5           2.3949    35.1571    67.3071 C5            1 RES     
     886 C5           0.8579    34.9965    67.0952 C5            1 RES     
     887 C5           0.0577    35.1535    68.4211 C5            1 RES     
     888 C5          -1.3060    34.4393    68.3743 C5            1 RES     
     889 C5          -1.8418    34.1505    69.7930 C5            1 RES     
     890 C5          -3.0467    33.1936    69.7437 C5            1 RES     
     891 C5          -3.4362    32.6327    71.1233 C5            1 RES     
     892 C5          -3.9485    33.6896    72.0955 C5            1 RES     
     893 C5           0.4319    35.9873    65.9631 C5            1 RES     
     894 C0          -0.9354    36.0017    65.1768 C0            1 RES     
     895 C5          -0.9846    37.4254    64.4701 C5            1 RES     
     896 C5          -1.9173    38.4708    65.1685 C5            1 RES     
     897 C5          -3.4125    38.3778    64.7181 C5            1 RES     
     898 C5          -3.7203    38.9325    63.3073 C5            1 RES     
     899 C5          -5.1552    38.6629    62.8189 C5            1 RES     
     900 C5          -6.2591    39.4707    63.5275 C5            1 RES     
     901 C5          -6.1630    41.0019    63.3541 C5            1 RES     
     902 C5          -6.2296    41.4572    61.8926 C5            1 RES     
     903 C5          -1.3609    39.9331    65.1309 C5            1 RES     
     904 C5          -0.7920    40.4534    63.7855 C5            1 RES     
     905 C5          -0.4719    41.9652    63.8037 C5            1 RES     
     906 C5           0.5657    42.3784    64.8648 C5            1 RES     
     907 C5           0.8783    43.8885    64.8587 C5            1 RES     
     908 C5           1.6030    44.3591    63.5827 C5            1 RES     
     909 C5           1.9133    45.8668    63.5761 C5            1 RES     
     910 C5           2.8808    46.3013    64.6779 C5            1 RES     
     911 H6           6.6838    29.1195    66.4999 H6            1 RES     
     912 H6           6.6680    27.5583    65.6181 H6            1 RES     
     913 H6           5.5287    27.8119    66.9931 H6            1 RES     
     914 H6           5.5052    29.3238    64.2904 H6            1 RES     
     915 H6           4.4078    27.9758    64.7578 H6            1 RES     
     916 H6           3.2532    30.1135    64.9935 H6            1 RES     
     917 H6           3.4414    29.3102    66.5929 H6            1 RES     
     918 H6           5.2165    31.6320    65.5424 H6            1 RES     
     919 H6           5.3306    30.8300    67.1601 H6            1 RES     
     920 H6           2.9081    32.4083    66.0708 H6            1 RES     
     921 H6           2.9702    31.4836    67.6327 H6            1 RES     
     922 H6           4.7590    32.8186    68.4934 H6            1 RES     
     923 H6           4.8476    33.8511    67.0254 H6            1 RES     
     924 H6           2.3593    33.5047    68.8341 H6            1 RES     
     925 H6           3.5818    34.7754    69.0584 H6            1 RES     
     926 H6           2.8995    35.0434    66.3214 H6            1 RES     
     927 H6           2.6112    36.1955    67.6399 H6            1 RES     
     928 H6           0.7803    33.9763    66.7927 H6            1 RES     
     929 H6           0.6228    34.6285    69.2103 H6            1 RES     
     930 H6          -0.0192    36.2103    68.7566 H6            1 RES     
     931 H6          -2.0369    34.9981    67.7523 H6            1 RES     
     932 H6          -1.1382    33.4440    67.9123 H6            1 RES     
     933 H6          -2.0907    35.0960    70.3208 H6            1 RES     
     934 H6          -1.0411    33.6286    70.3628 H6            1 RES     
     935 H6          -3.9139    33.6893    69.2583 H6            1 RES     
     936 H6          -2.7630    32.3107    69.1280 H6            1 RES     
     937 H6          -2.5618    32.1121    71.5740 H6            1 RES     
     938 H6          -4.2404    31.8791    70.9777 H6            1 RES     
     939 H6          -4.8443    34.1925    71.6752 H6            1 RES     
     940 H6          -3.1642    34.4422    72.3152 H6            1 RES     
     941 H6          -4.2326    33.1967    73.0501 H6            1 RES     
     942 H6           1.1953    35.9256    65.1559 H6            1 RES     
     943 H6           0.5512    36.9844    66.4477 H6            1 RES     
     944 H6           0.0458    37.8390    64.4670 H6            1 RES     
     945 H6          -1.1838    37.3916    63.3900 H6            1 RES     
     946 H6          -1.9218    38.2138    66.2528 H6            1 RES     
     947 H6          -3.7226    37.3122    64.7810 H6            1 RES     
     948 H6          -4.0361    38.9501    65.4379 H6            1 RES     
     949 H6          -3.5446    40.0213    63.2634 H6            1 RES     
     950 H6          -3.0398    38.4575    62.5855 H6            1 RES     
     951 H6          -5.2048    38.8877    61.7328 H6            1 RES     
     952 H6          -5.3743    37.5816    62.9285 H6            1 RES     
     953 H6          -6.2575    39.2286    64.6105 H6            1 RES     
     954 H6          -7.2376    39.1421    63.1129 H6            1 RES     
     955 H6          -5.2340    41.3923    63.8176 H6            1 RES     
     956 H6          -7.0212    41.4592    63.8922 H6            1 RES     
     957 H6          -7.1638    41.0939    61.4137 H6            1 RES     
     958 H6          -6.2192    42.5668    61.8489 H6            1 RES     
     959 H6          -5.3545    41.0922    61.3169 H6            1 RES     
     960 H6          -0.5169    39.9780    65.8515 H6            1 RES     
     961 H6          -2.1542    40.6137    65.5102 H6            1 RES     
     962 H6          -1.4941    40.3051    62.9527 H6            1 RES     
     963 H6           0.1276    39.8926    63.5240 H6            1 RES     
     964 H6          -0.0925    42.2224    62.7934 H6            1 RES     
     965 H6          -1.4128    42.5335    63.9748 H6            1 RES     
     966 H6           1.5073    41.8049    64.7241 H6            1 RES     
     967 H6           0.1564    42.1412    65.8689 H6            1 RES     
     968 H6          -0.0640    44.4636    64.9954 H6            1 RES     
     969 H6           1.5343    44.0841    65.7321 H6            1 RES     
     970 H6           0.9612    44.1635    62.7001 H6            1 RES     
     971 H6           2.5500    43.7892    63.4603 H6            1 RES     
     972 H6           2.3805    46.1153    62.5981 H6            1 RES     
     973 H6           0.9690    46.4466    63.6640 H6            1 RES     
     974 H6           2.4430    46.1432    65.6840 H6            1 RES     
     975 H6           3.0962    47.3856    64.5700 H6            1 RES     
     976 H6           3.8359    45.7409    64.5961 H6            1 RES     
     977 C0           4.0280    24.9753    69.8632 C0            1 RES     
     978 C0           3.4333    23.5991    70.1640 C0            1 RES     
     979 C0           2.0792    23.6278    70.1361 C0            1 RES     
     980 S1           1.3780    22.1307    70.3982 S1            1 RES     
     981 C0           2.8911    21.3651    70.5608 C0            1 RES     
     982 C0           3.9146    22.3048    70.3509 C0            1 RES     
     983 C0           1.6411    24.9139    69.7159 C0            1 RES     
     984 C0           2.7017    25.6570    69.4933 C0            1 RES     
     985 C0           2.3563    26.8877    68.8063 C0            1 RES     
     986 C0           0.9881    26.9591    68.5929 C0            1 RES     
     987 S1           0.0502    25.5561    69.2318 S1            1 RES     
     988 H2           4.9436    22.0219    70.2853 H2            1 RES     
     989 H2           3.0574    27.5835    68.3785 H2            1 RES     
     990 N3           4.6174    18.2070    71.6725 N3            1 RES     
     991 C0           4.3622    19.5145    71.3816 C0            1 RES     
     992 C0           3.1238    19.9241    70.8476 C0            1 RES     
     993 C0           2.1593    18.9239    70.6407 C0            1 RES     
     994 N3           0.9179    19.1451    70.1317 N3            1 RES     
     995 S1           0.2706    17.6238    70.0931 S1            1 RES     
     996 N3           1.4742    16.6647    70.6928 N3            1 RES     
     997 C0           2.4567    17.5680    70.9430 C0            1 RES     
     998 C0           3.6978    17.2255    71.4633 C0            1 RES     
     999 H4           5.1215    20.2445    71.5998 H4            1 RES     
    1000 C5           8.8136    16.4315    68.6269 C5            1 RES     
    1001 C5           7.8838    17.5027    68.0548 C5            1 RES     
    1002 C5           7.3698    18.5021    69.1062 C5            1 RES     
    1003 C5           8.4798    19.3252    69.7892 C5            1 RES     
    1004 C5           7.8699    20.3305    70.7813 C5            1 RES     
    1005 C5           8.9288    21.0276    71.6473 C5            1 RES     
    1006 C5           8.3036    21.9747    72.6991 C5            1 RES     
    1007 C5           7.8646    23.3705    72.1569 C5            1 RES     
    1008 C5           6.3478    23.7180    72.2651 C5            1 RES     
    1009 C5           5.8393    23.6984    73.7362 C5            1 RES     
    1010 C5           4.3236    23.4428    73.8324 C5            1 RES     
    1011 C5           3.9268    22.9144    75.2275 C5            1 RES     
    1012 C5           2.4784    22.3931    75.2289 C5            1 RES     
    1013 C5           2.1223    21.5863    76.4905 C5            1 RES     
    1014 C5           2.1315    22.4118    77.7723 C5            1 RES     
    1015 C5           6.1205    25.0745    71.5217 C5            1 RES     
    1016 C0           4.7396    25.7023    71.0893 C0            1 RES     
    1017 C5           5.0671    27.2241    70.7644 C5            1 RES     
    1018 C5           4.6420    28.2374    71.8792 C5            1 RES     
    1019 C5           3.1531    28.7047    71.7683 C5            1 RES     
    1020 C5           2.8523    29.7110    70.6328 C5            1 RES     
    1021 C5           1.3559    30.0110    70.4310 C5            1 RES     
    1022 C5           0.6935    30.8523    71.5387 C5            1 RES     
    1023 C5           1.2671    32.2755    71.7106 C5            1 RES     
    1024 C5           1.1511    33.1380    70.4494 C5            1 RES     
    1025 C5           5.6410    29.4284    72.0599 C5            1 RES     
    1026 C5           6.1558    30.1376    70.7806 C5            1 RES     
    1027 C5           6.9587    31.4241    71.0789 C5            1 RES     
    1028 C5           8.2126    31.1994    71.9452 C5            1 RES     
    1029 C5           9.0044    32.4934    72.2218 C5            1 RES     
    1030 C5           9.6578    33.0931    70.9615 C5            1 RES     
    1031 C5          10.4467    34.3858    71.2374 C5            1 RES     
    1032 C5          11.6480    34.1884    72.1632 C5            1 RES     
    1033 H6           9.7484    16.8826    69.0171 H6            1 RES     
    1034 H6           9.0918    15.7182    67.8219 H6            1 RES     
    1035 H6           8.3060    15.8680    69.4383 H6            1 RES     
    1036 H6           8.4070    18.0473    67.2403 H6            1 RES     
    1037 H6           7.0014    16.9872    67.6148 H6            1 RES     
    1038 H6           6.6668    19.1966    68.5971 H6            1 RES     
    1039 H6           6.8001    17.9415    69.8800 H6            1 RES     
    1040 H6           9.0793    19.8717    69.0287 H6            1 RES     
    1041 H6           9.1463    18.6332    70.3458 H6            1 RES     
    1042 H6           7.2577    21.0757    70.2298 H6            1 RES     
    1043 H6           7.2277    19.7560    71.4773 H6            1 RES     
    1044 H6           9.4601    20.2213    72.2002 H6            1 RES     
    1045 H6           9.6795    21.5696    71.0328 H6            1 RES     
    1046 H6           7.4970    21.4234    73.2233 H6            1 RES     
    1047 H6           9.0906    22.1754    73.4568 H6            1 RES     
    1048 H6           8.1594    23.4131    71.0842 H6            1 RES     
    1049 H6           8.4576    24.1613    72.6654 H6            1 RES     
    1050 H6           5.8943    22.8958    71.7582 H6            1 RES     
    1051 H6           6.3029    22.8288    74.2328 H6            1 RES     
    1052 H6           6.1654    24.5877    74.3177 H6            1 RES     
    1053 H6           3.7401    24.3411    73.5392 H6            1 RES     
    1054 H6           4.0850    22.6212    73.1250 H6            1 RES     
    1055 H6           4.0824    23.6940    76.0036 H6            1 RES     
    1056 H6           4.5805    22.0454    75.4642 H6            1 RES     
    1057 H6           1.7659    23.2320    75.0808 H6            1 RES     
    1058 H6           2.3636    21.6865    74.3763 H6            1 RES     
    1059 H6           2.8284    20.7327    76.5983 H6            1 RES     
    1060 H6           1.1016    21.1662    76.3579 H6            1 RES     
    1061 H6           1.4039    23.2463    77.6940 H6            1 RES     
    1062 H6           3.1437    22.8148    77.9793 H6            1 RES     
    1063 H6           1.8368    21.7618    78.6242 H6            1 RES     
    1064 H6           6.6990    25.0397    70.5717 H6            1 RES     
    1065 H6           6.6307    25.8105    72.1860 H6            1 RES     
    1066 H6           6.1651    27.3133    70.6260 H6            1 RES     
    1067 H6           4.7186    27.5652    69.7797 H6            1 RES     
    1068 H6           4.7044    27.6865    72.8458 H6            1 RES     
    1069 H6           2.5191    27.7995    71.6488 H6            1 RES     
    1070 H6           2.8623    29.1924    72.7233 H6            1 RES     
    1071 H6           3.3714    30.6695    70.8060 H6            1 RES     
    1072 H6           3.2282    29.2968    69.6858 H6            1 RES     
    1073 H6           1.2318    30.5482    69.4673 H6            1 RES     
    1074 H6           0.8079    29.0523    70.3315 H6            1 RES     
    1075 H6           0.7665    30.3137    72.5061 H6            1 RES     
    1076 H6          -0.3864    30.9485    71.2901 H6            1 RES     
    1077 H6           2.3283    32.2354    72.0309 H6            1 RES     
    1078 H6           0.6937    32.7773    72.5197 H6            1 RES     
    1079 H6           0.0920    33.2088    70.1220 H6            1 RES     
    1080 H6           1.5230    34.1620    70.6649 H6            1 RES     
    1081 H6           1.7656    32.7268    69.6225 H6            1 RES     
    1082 H6           6.5443    29.0213    72.5618 H6            1 RES     
    1083 H6           5.1801    30.1625    72.7563 H6            1 RES     
    1084 H6           5.3348    30.4433    70.1164 H6            1 RES     
    1085 H6           6.7908    29.4431    70.1951 H6            1 RES     
    1086 H6           7.2564    31.8480    70.0977 H6            1 RES     
    1087 H6           6.2936    32.1579    71.5854 H6            1 RES     
    1088 H6           8.8808    30.4516    71.4661 H6            1 RES     
    1089 H6           7.8928    30.8038    72.9318 H6            1 RES     
    1090 H6           8.3355    33.2440    72.6976 H6            1 RES     
    1091 H6           9.8038    32.2322    72.9458 H6            1 RES     
    1092 H6           8.8704    33.3532    70.2255 H6            1 RES     
    1093 H6          10.3349    32.3418    70.4993 H6            1 RES     
    1094 H6          10.8279    34.7678    70.2652 H6            1 RES     
    1095 H6           9.7706    35.1555    71.6687 H6            1 RES     
    1096 H6          11.3281    33.8727    73.1765 H6            1 RES     
    1097 H6          12.1936    35.1504    72.2658 H6            1 RES     
    1098 H6          12.3415    33.4316    71.7397 H6            1 RES     
    1099 C0           6.3671    12.8576    71.8288 C0            1 RES     
    1100 C0           5.3977    11.6791    71.9258 C0            1 RES     
    1101 C0           4.1402    12.0942    72.2112 C0            1 RES     
    1102 S1           3.0259    10.8464    72.2674 S1            1 RES     
    1103 C0           4.2060     9.6737    71.9015 C0            1 RES     
    1104 C0           5.4433    10.3062    71.6919 C0            1 RES     
    1105 C0           4.0994    13.5158    72.2128 C0            1 RES     
    1106 C0           5.3042    13.9619    71.9369 C0            1 RES     
    1107 C0           5.2941    15.3848    71.6522 C0            1 RES     
    1108 C0           4.0116    15.8973    71.7753 C0            1 RES     
    1109 S1           2.7606    14.6918    72.2633 S1            1 RES     
    1110 H2           6.3001     9.7774    71.3321 H2            1 RES     
    1111 H2           6.1191    15.9488    71.2522 H2            1 RES     
    1112 N3           4.9241     5.9766    71.8266 N3            1 RES     
    1113 C0           5.0793     7.3285    71.9143 C0            1 RES     
    1114 C0           3.9851     8.2073    71.7839 C0            1 RES     
    1115 C0           2.7244     7.6249    71.5718 C0            1 RES     
    1116 N3           1.5684     8.3251    71.4217 N3            1 RES     
    1117 S1           0.4543     7.1280    71.1757 S1            1 RES     
    1118 N3           1.3428     5.7376    71.2478 N3            1 RES     
    1119 C0           2.5942     6.2137    71.4741 C0            1 RES     
    1120 C0           3.7113     5.3994    71.6067 C0            1 RES     
    1121 H4           6.0605     7.7183    72.1202 H4            1 RES     
    1122 C5           7.8222     4.0652    67.5859 C5            1 RES     
    1123 C5           7.2301     5.4730    67.5044 C5            1 RES     
    1124 C5           7.2298     6.2233    68.8481 C5            1 RES     
    1125 C5           8.6342     6.4636    69.4363 C5            1 RES     
    1126 C5           8.5380     7.2636    70.7470 C5            1 RES     
    1127 C5           9.8786     7.3495    71.4903 C5            1 RES     
    1128 C5           9.7572     8.0831    72.8473 C5            1 RES     
    1129 C5           9.7349     9.6409    72.7593 C5            1 RES     
    1130 C5           8.4505    10.3533    73.2845 C5            1 RES     
    1131 C5           8.1759    10.0479    74.7859 C5            1 RES     
    1132 C5           6.6907    10.2124    75.1586 C5            1 RES     
    1133 C5           6.3407     9.4328    76.4443 C5            1 RES     
    1134 C5           4.8167     9.3632    76.6501 C5            1 RES     
    1135 C5           4.3937     8.3568    77.7352 C5            1 RES     
    1136 C5           4.8560     8.7336    79.1384 C5            1 RES     
    1137 C5           8.5844    11.8746    72.9493 C5            1 RES     
    1138 C0           7.4440    12.9632    72.9980 C0            1 RES     
    1139 C5           8.2091    14.3570    72.9723 C5            1 RES     
    1140 C5           8.3051    15.0765    74.3593 C5            1 RES     
    1141 C5           7.0558    15.9546    74.6989 C5            1 RES     
    1142 C5           6.9500    17.2912    73.9275 C5            1 RES     
    1143 C5           5.6253    18.0452    74.1439 C5            1 RES     
    1144 C5           5.4420    18.6763    75.5373 C5            1 RES     
    1145 C5           6.4735    19.7654    75.9031 C5            1 RES     
    1146 C5           6.4748    20.9553    74.9378 C5            1 RES     
    1147 C5           9.6577    15.8312    74.5832 C5            1 RES     
    1148 C5          10.1939    16.7090    73.4229 C5            1 RES     
    1149 C5          11.4117    17.5717    73.8246 C5            1 RES     
    1150 C5          12.6282    16.7602    74.3092 C5            1 RES     
    1151 C5          13.8352    17.6393    74.6946 C5            1 RES     
    1152 C5          14.4670    18.3724    73.4953 C5            1 RES     
    1153 C5          15.6706    19.2513    73.8805 C5            1 RES     
    1154 C5          16.8555    18.4622    74.4395 C5            1 RES     
    1155 H6           8.8986     4.1004    67.8498 H6            1 RES     
    1156 H6           7.7321     3.5706    66.5952 H6            1 RES     
    1157 H6           7.2754     3.4555    68.3362 H6            1 RES     
    1158 H6           7.7848     6.0620    66.7434 H6            1 RES     
    1159 H6           6.1742     5.3788    67.1666 H6            1 RES     
    1160 H6           6.7332     7.2047    68.6871 H6            1 RES     
    1161 H6           6.6207     5.6447    69.5774 H6            1 RES     
    1162 H6           9.2682     7.0170    68.7096 H6            1 RES     
    1163 H6           9.1043     5.4809    69.6511 H6            1 RES     
    1164 H6           8.1369     8.2782    70.5373 H6            1 RES     
    1165 H6           7.8458     6.7154    71.4157 H6            1 RES     
    1166 H6          10.1841     6.3014    71.7053 H6            1 RES     
    1167 H6          10.6726     7.8136    70.8666 H6            1 RES     
    1168 H6           8.8953     7.6527    73.3960 H6            1 RES     
    1169 H6          10.6642     7.8235    73.4336 H6            1 RES     
    1170 H6           9.8736     9.9109    71.6882 H6            1 RES     
    1171 H6          10.6218    10.0481    73.2914 H6            1 RES     
    1172 H6           7.6835     9.8778    72.7151 H6            1 RES     
    1173 H6           8.3893     8.9775    74.9482 H6            1 RES     
    1174 H6           8.8568    10.5989    75.4702 H6            1 RES     
    1175 H6           6.4034    11.2833    75.2225 H6            1 RES     
    1176 H6           6.0962     9.7356    74.3514 H6            1 RES     
    1177 H6           6.8535     9.8745    77.3254 H6            1 RES     
    1178 H6           6.6953     8.3855    76.3180 H6            1 RES     
    1179 H6           4.4098    10.3736    76.8665 H6            1 RES     
    1180 H6           4.3557     8.9992    75.7045 H6            1 RES     
    1181 H6           4.7842     7.3466    77.4788 H6            1 RES     
    1182 H6           3.2836     8.2987    77.7416 H6            1 RES     
    1183 H6           4.4432     9.7238    79.4231 H6            1 RES     
    1184 H6           5.9630     8.7567    79.2003 H6            1 RES     
    1185 H6           4.4847     7.9731    79.8588 H6            1 RES     
    1186 H6           8.9794    11.9581    71.9123 H6            1 RES     
    1187 H6           9.3978    12.2094    73.6347 H6            1 RES     
    1188 H6           9.2436    14.1703    72.6149 H6            1 RES     
    1189 H6           7.8592    15.0549    72.1991 H6            1 RES     
    1190 H6           8.3160    14.2725    75.1308 H6            1 RES     
    1191 H6           6.1472    15.3406    74.5173 H6            1 RES     
    1192 H6           7.0803    16.2027    75.7816 H6            1 RES     
    1193 H6           7.7766    17.9706    74.1983 H6            1 RES     
    1194 H6           7.0304    17.0841    72.8504 H6            1 RES     
    1195 H6           5.5528    18.8531    73.3858 H6            1 RES     
    1196 H6           4.7820    17.3523    73.9493 H6            1 RES     
    1197 H6           5.4669    17.8804    76.3102 H6            1 RES     
    1198 H6           4.4316    19.1406    75.5679 H6            1 RES     
    1199 H6           7.4950    19.3367    75.9576 H6            1 RES     
    1200 H6           6.2186    20.1485    76.9148 H6            1 RES     
    1201 H6           5.4643    21.4137    74.8832 H6            1 RES     
    1202 H6           7.1917    21.7236    75.2970 H6            1 RES     
    1203 H6           6.7956    20.6487    73.9211 H6            1 RES     
    1204 H6          10.4355    15.0582    74.7595 H6            1 RES     
    1205 H6           9.5690    16.4279    75.5172 H6            1 RES     
    1206 H6           9.4364    17.4135    73.0509 H6            1 RES     
    1207 H6          10.4737    16.0669    72.5638 H6            1 RES     
    1208 H6          11.6925    18.1625    72.9285 H6            1 RES     
    1209 H6          11.1058    18.2811    74.6249 H6            1 RES     
    1210 H6          12.9362    16.0291    73.5308 H6            1 RES     
    1211 H6          12.3370    16.1999    75.2220 H6            1 RES     
    1212 H6          13.5270    18.3741    75.4706 H6            1 RES     
    1213 H6          14.5956    16.9639    75.1383 H6            1 RES     
    1214 H6          13.7156    19.0469    73.0372 H6            1 RES     
    1215 H6          14.7844    17.6307    72.7302 H6            1 RES     
    1216 H6          16.0166    19.7777    72.9642 H6            1 RES     
    1217 H6          15.3558    20.0187    74.6205 H6            1 RES     
    1218 H6          16.5944    17.9670    75.3964 H6            1 RES     
    1219 H6          17.6982    19.1579    74.6384 H6            1 RES     
    1220 H6          17.1919    17.6994    73.7060 H6            1 RES     
    1221 C0           4.8027     0.5498    70.3310 C0            1 RES     
    1222 C0           3.5210    -0.2831    70.3659 C0            1 RES     
    1223 C0           2.5256     0.3664    71.0160 C0            1 RES     
    1224 S1           1.0800    -0.4771    71.0288 S1            1 RES     
    1225 C0           1.7403    -1.7738    70.1430 C0            1 RES     
    1226 C0           3.0750    -1.4822    69.8137 C0            1 RES     
    1227 C0           2.9597     1.6766    71.3588 C0            1 RES     
    1228 C0           4.1929     1.8263    70.9306 C0            1 RES     
    1229 C0           4.6159     3.2129    70.9959 C0            1 RES     
    1230 C0           3.6068     4.0059    71.5209 C0            1 RES     
    1231 S1           2.1082     3.1131    71.9827 S1            1 RES     
    1232 H2           3.6483    -2.1011    69.1568 H2            1 RES     
    1233 H2           5.5165     3.6135    70.5634 H2            1 RES     
    1234 N3           1.1726    -5.3327    69.0469 N3            1 RES     
    1235 C0           1.7783    -4.1664    69.4106 C0            1 RES     
    1236 C0           1.0310    -3.0174    69.7390 C0            1 RES     
    1237 C0          -0.3680    -3.1331    69.6863 C0            1 RES     
    1238 N3          -1.2350    -2.1242    69.9683 N3            1 RES     
    1239 S1          -2.7062    -2.8329    69.7070 S1            1 RES     
    1240 N3          -2.3287    -4.3747    69.2504 N3            1 RES     
    1241 C0          -0.9716    -4.3577    69.2937 C0            1 RES     
    1242 C0          -0.1812    -5.4548    68.9773 C0            1 RES     
    1243 H4           2.8519    -4.1463    69.4754 H4            1 RES     
    1244 C5           2.6471    -6.6536    63.9364 C5            1 RES     
    1245 C5           2.5506    -5.1765    64.3214 C5            1 RES     
    1246 C5           2.9877    -4.8840    65.7678 C5            1 RES     
    1247 C5           4.4600    -5.2314    66.0639 C5            1 RES     
    1248 C5           4.8195    -4.8567    67.5121 C5            1 RES     
    1249 C5           6.2028    -5.3727    67.9334 C5            1 RES     
    1250 C5           6.5233    -5.0651    69.4156 C5            1 RES     
    1251 C5           7.0072    -3.6094    69.7012 C5            1 RES     
    1252 C5           6.1191    -2.7508    70.6537 C5            1 RES     
    1253 C5           5.9722    -3.3921    72.0644 C5            1 RES     
    1254 C5           4.6936    -2.9331    72.7900 C5            1 RES     
    1255 C5           4.2886    -3.9235    73.9028 C5            1 RES     
    1256 C5           2.8727    -3.6188    74.4245 C5            1 RES     
    1257 C5           2.2962    -4.7372    75.3112 C5            1 RES     
    1258 C5           3.0493    -4.9335    76.6223 C5            1 RES     
    1259 C5           6.7020    -1.3000    70.6617 C5            1 RES     
    1260 C0           6.0063     0.0013    71.2190 C0            1 RES     
    1261 C5           7.1790     1.0676    71.3478 C5            1 RES     
    1262 C5           7.7018     1.2923    72.8062 C5            1 RES     
    1263 C5           6.8755     2.3468    73.6139 C5            1 RES     
    1264 C5           7.1123     3.8238    73.2203 C5            1 RES     
    1265 C5           6.1571     4.8222    73.8995 C5            1 RES     
    1266 C5           6.3910     5.0427    75.4062 C5            1 RES     
    1267 C5           7.7660     5.6410    75.7742 C5            1 RES     
    1268 C5           8.0267     7.0106    75.1387 C5            1 RES     
    1269 C5           9.2455     1.5362    72.8896 C5            1 RES     
    1270 C5           9.8743     2.5272    71.8762 C5            1 RES     
    1271 C5          11.3530     2.8557    72.1834 C5            1 RES     
    1272 C5          12.2864     1.6302    72.1782 C5            1 RES     
    1273 C5          13.7581     1.9814    72.4762 C5            1 RES     
    1274 C5          14.4227     2.8247    71.3707 C5            1 RES     
    1275 C5          15.8912     3.1768    71.6692 C5            1 RES     
    1276 C5          16.8130     1.9588    71.7467 C5            1 RES     
    1277 H6           3.6999    -7.0012    63.9518 H6            1 RES     
    1278 H6           2.2600    -6.7903    62.9041 H6            1 RES     
    1279 H6           2.0399    -7.2766    64.6269 H6            1 RES     
    1280 H6           3.1568    -4.5715    63.6142 H6            1 RES     
    1281 H6           1.4870    -4.8669    64.2178 H6            1 RES     
    1282 H6           2.8276    -3.8002    65.9566 H6            1 RES     
    1283 H6           2.3298    -5.4549    66.4597 H6            1 RES     
    1284 H6           5.1332    -4.6912    65.3630 H6            1 RES     
    1285 H6           4.6025    -6.3245    65.9317 H6            1 RES     
    1286 H6           4.7527    -3.7553    67.6411 H6            1 RES     
    1287 H6           4.0857    -5.3587    68.1726 H6            1 RES     
    1288 H6           6.1701    -6.4794    67.8231 H6            1 RES     
    1289 H6           7.0101    -4.9893    67.2729 H6            1 RES     
    1290 H6           5.6534    -5.3768    70.0283 H6            1 RES     
    1291 H6           7.3654    -5.7290    69.7052 H6            1 RES     
    1292 H6           7.0761    -3.0882    68.7199 H6            1 RES     
    1293 H6           8.0444    -3.6423    70.0998 H6            1 RES     
    1294 H6           5.1660    -2.8031    70.1769 H6            1 RES     
    1295 H6           5.8387    -4.4779    71.9198 H6            1 RES     
    1296 H6           6.8861    -3.2803    72.6870 H6            1 RES     
    1297 H6           4.7899    -1.8924    73.1652 H6            1 RES     
    1298 H6           3.8676    -2.9656    72.0490 H6            1 RES     
    1299 H6           5.0371    -3.9219    74.7239 H6            1 RES     
    1300 H6           4.2541    -4.9434    73.4589 H6            1 RES     
    1301 H6           2.8588    -2.6442    74.9568 H6            1 RES     
    1302 H6           2.1892    -3.5451    73.5489 H6            1 RES     
    1303 H6           2.2892    -5.6952    74.7447 H6            1 RES     
    1304 H6           1.2422    -4.4800    75.5538 H6            1 RES     
    1305 H6           3.0328    -3.9957    77.2159 H6            1 RES     
    1306 H6           4.0983    -5.2417    76.4369 H6            1 RES     
    1307 H6           2.5515    -5.7349    77.2097 H6            1 RES     
    1308 H6           6.9528    -1.0313    69.6114 H6            1 RES     
    1309 H6           7.6679    -1.4233    71.2050 H6            1 RES     
    1310 H6           8.0319     0.7106    70.7331 H6            1 RES     
    1311 H6           6.9758     2.0301    70.8583 H6            1 RES     
    1312 H6           7.5534     0.3286    73.3458 H6            1 RES     
    1313 H6           5.7987     2.0943    73.5034 H6            1 RES     
    1314 H6           7.1325     2.2498    74.6905 H6            1 RES     
    1315 H6           8.1469     4.1331    73.4489 H6            1 RES     
    1316 H6           6.9675     3.9271    72.1350 H6            1 RES     
    1317 H6           6.2514     5.8027    73.3874 H6            1 RES     
    1318 H6           5.1132     4.4829    73.7435 H6            1 RES     
    1319 H6           6.2584     4.0821    75.9457 H6            1 RES     
    1320 H6           5.6069     5.7422    75.7712 H6            1 RES     
    1321 H6           8.5842     4.9459    75.4955 H6            1 RES     
    1322 H6           7.7972     5.7667    76.8780 H6            1 RES     
    1323 H6           7.2286     7.7296    75.4217 H6            1 RES     
    1324 H6           9.0009     7.4061    75.4964 H6            1 RES     
    1325 H6           8.0817     6.9377    74.0332 H6            1 RES     
    1326 H6           9.7392     0.5594    72.7006 H6            1 RES     
    1327 H6           9.4918     1.8332    73.9324 H6            1 RES     
    1328 H6           9.3494     3.4929    71.8596 H6            1 RES     
    1329 H6           9.8018     2.1131    70.8507 H6            1 RES     
    1330 H6          11.6854     3.5789    71.4105 H6            1 RES     
    1331 H6          11.4153     3.3559    73.1749 H6            1 RES     
    1332 H6          12.2219     1.1031    71.2018 H6            1 RES     
    1333 H6          11.9567     0.9328    72.9764 H6            1 RES     
    1334 H6          13.8234     2.5126    73.4512 H6            1 RES     
    1335 H6          14.3055     1.0204    72.5668 H6            1 RES     
    1336 H6          13.8814     3.7865    71.2642 H6            1 RES     
    1337 H6          14.3653     2.2815    70.4022 H6            1 RES     
    1338 H6          16.2602     3.8287    70.8475 H6            1 RES     
    1339 H6          15.9560     3.7501    72.6193 H6            1 RES     
    1340 H6          16.5392     1.2997    72.5949 H6            1 RES     
    1341 H6          17.8578     2.2996    71.9075 H6            1 RES     
    1342 H6          16.7707     1.3818    70.7990 H6            1 RES     
    1343 C0          -0.9515    -9.8207    66.3921 C0            1 RES     
    1344 C0          -2.4187   -10.2317    66.5193 C0            1 RES     
    1345 C0          -3.0405    -9.5484    67.5102 C0            1 RES     
    1346 S1          -4.6672    -9.9166    67.6509 S1            1 RES     
    1347 C0          -4.6058   -11.0281    66.3615 C0            1 RES     
    1348 C0          -3.3101   -11.0407    65.8174 C0            1 RES     
    1349 C0          -2.1526    -8.5733    68.0426 C0            1 RES     
    1350 C0          -1.0126    -8.6580    67.3947 C0            1 RES     
    1351 C0          -0.1487    -7.5288    67.6851 C0            1 RES     
    1352 C0          -0.7531    -6.6739    68.5943 C0            1 RES     
    1353 S1          -2.3827    -7.2036    69.1601 S1            1 RES     
    1354 H2          -3.0728   -11.5752    64.9224 H2            1 RES     
    1355 H2           0.7638    -7.2894    67.1667 H2            1 RES     
    1356 N3          -6.4702   -13.8004    64.6214 N3            1 RES     
    1357 C0          -5.4671   -13.0113    65.1014 C0            1 RES     
    1358 C0          -5.7368   -11.8471    65.8487 C0            1 RES     
    1359 C0          -7.0877   -11.5440    66.0870 C0            1 RES     
    1360 N3          -7.5221   -10.4606    66.7846 N3            1 RES     
    1361 S1          -9.1663   -10.6182    66.7033 S1            1 RES     
    1362 N3          -9.3899   -11.9998    65.8263 N3            1 RES     
    1363 C0          -8.1122   -12.3786    65.5656 C0            1 RES     
    1364 C0          -7.7834   -13.5109    64.8320 C0            1 RES     
    1365 H4          -4.4499   -13.3137    64.9255 H4            1 RES     
    1366 C5          -6.2497   -13.9267    59.1467 C5            1 RES     
    1367 C5          -5.7955   -12.6624    59.8777 C5            1 RES     
    1368 C5          -5.0879   -12.9411    61.2156 C5            1 RES     
    1369 C5          -3.7882   -13.7593    61.0829 C5            1 RES     
    1370 C5          -3.1254   -13.9418    62.4593 C5            1 RES     
    1371 C5          -1.9472   -14.9256    62.4257 C5            1 RES     
    1372 C5          -1.3384   -15.1684    63.8273 C5            1 RES     
    1373 C5          -0.3638   -14.0575    64.3284 C5            1 RES     
    1374 C5          -0.7737   -13.3018    65.6300 C5            1 RES     
    1375 C5          -0.9258   -14.2595    66.8477 C5            1 RES     
    1376 C5          -1.8645   -13.6928    67.9292 C5            1 RES     
    1377 C5          -2.4150   -14.8097    68.8417 C5            1 RES     
    1378 C5          -3.5615   -14.2857    69.7253 C5            1 RES     
    1379 C5          -4.3461   -15.4052    70.4327 C5            1 RES     
    1380 C5          -3.5250   -16.1800    71.4574 C5            1 RES     
    1381 C5           0.2527   -12.1422    65.8451 C5            1 RES     
    1382 C0           0.1137   -10.9203    66.8328 C0            1 RES     
    1383 C5           1.5797   -10.3132    66.9396 C5            1 RES     
    1384 C5           2.3464   -10.6816    68.2537 C5            1 RES     
    1385 C5           2.0388    -9.7219    69.4502 C5            1 RES     
    1386 C5           2.6947    -8.3233    69.3695 C5            1 RES     
    1387 C5           2.2303    -7.3411    70.4602 C5            1 RES     
    1388 C5           2.7328    -7.6462    71.8842 C5            1 RES     
    1389 C5           4.2657    -7.5937    72.0623 C5            1 RES     
    1390 C5           4.8744    -6.2293    71.7223 C5            1 RES     
    1391 C5           3.8790   -10.9172    68.0418 C5            1 RES     
    1392 C5           4.6524    -9.8917    67.1731 C5            1 RES     
    1393 C5           6.1838   -10.0972    67.2072 C5            1 RES     
    1394 C5           6.6472   -11.4782    66.7059 C5            1 RES     
    1395 C5           8.1783   -11.6582    66.7382 C5            1 RES     
    1396 C5           8.9232   -10.7508    65.7398 C5            1 RES     
    1397 C5          10.4518   -10.9293    65.7736 C5            1 RES     
    1398 C5          10.9183   -12.3244    65.3548 C5            1 RES     
    1399 H6          -5.3809   -14.5450    58.8429 H6            1 RES     
    1400 H6          -6.8009   -13.6408    58.2256 H6            1 RES     
    1401 H6          -6.9261   -14.5275    59.7912 H6            1 RES     
    1402 H6          -5.1284   -12.0729    59.2135 H6            1 RES     
    1403 H6          -6.6995   -12.0499    60.0916 H6            1 RES     
    1404 H6          -4.8511   -11.9609    61.6834 H6            1 RES     
    1405 H6          -5.7941   -13.4804    61.8850 H6            1 RES     
    1406 H6          -3.0792   -13.2498    60.3944 H6            1 RES     
    1407 H6          -4.0367   -14.7598    60.6704 H6            1 RES     
    1408 H6          -2.8041   -12.9541    62.8536 H6            1 RES     
    1409 H6          -3.8840   -14.3875    63.1321 H6            1 RES     
    1410 H6          -2.3606   -15.8956    62.0703 H6            1 RES     
    1411 H6          -1.1596   -14.6089    61.7086 H6            1 RES     
    1412 H6          -2.1674   -15.3878    64.5300 H6            1 RES     
    1413 H6          -0.7326   -16.0967    63.7565 H6            1 RES     
    1414 H6          -0.2642   -13.3134    63.5064 H6            1 RES     
    1415 H6           0.6487   -14.4959    64.4642 H6            1 RES     
    1416 H6          -1.7470   -12.9421    65.3814 H6            1 RES     
    1417 H6          -1.4310   -15.1720    66.4874 H6            1 RES     
    1418 H6           0.0511   -14.5964    67.2568 H6            1 RES     
    1419 H6          -1.3766   -12.8785    68.5055 H6            1 RES     
    1420 H6          -2.7497   -13.2733    67.4068 H6            1 RES     
    1421 H6          -1.6011   -15.2589    69.4502 H6            1 RES     
    1422 H6          -2.8479   -15.6022    68.1914 H6            1 RES     
    1423 H6          -3.1763   -13.5469    70.4596 H6            1 RES     
    1424 H6          -4.2974   -13.7700    69.0683 H6            1 RES     
    1425 H6          -4.7500   -16.1131    69.6747 H6            1 RES     
    1426 H6          -5.2099   -14.9448    70.9596 H6            1 RES     
    1427 H6          -3.1459   -15.4920    72.2416 H6            1 RES     
    1428 H6          -2.6747   -16.7024    70.9737 H6            1 RES     
    1429 H6          -4.1729   -16.9444    71.9380 H6            1 RES     
    1430 H6           0.4285   -11.6597    64.8579 H6            1 RES     
    1431 H6           1.1890   -12.6855    66.1126 H6            1 RES     
    1432 H6           2.1706   -10.6994    66.0826 H6            1 RES     
    1433 H6           1.6409    -9.2331    66.7471 H6            1 RES     
    1434 H6           1.9637   -11.6785    68.5725 H6            1 RES     
    1435 H6           0.9350    -9.6175    69.5293 H6            1 RES     
    1436 H6           2.3973   -10.1978    70.3879 H6            1 RES     
    1437 H6           3.7945    -8.3985    69.4249 H6            1 RES     
    1438 H6           2.4418    -7.8706    68.3996 H6            1 RES     
    1439 H6           2.5719    -6.3215    70.1836 H6            1 RES     
    1440 H6           1.1220    -7.3120    70.4686 H6            1 RES     
    1441 H6           2.3660    -8.6447    72.2001 H6            1 RES     
    1442 H6           2.2848    -6.8932    72.5695 H6            1 RES     
    1443 H6           4.7592    -8.3775    71.4521 H6            1 RES     
    1444 H6           4.4913    -7.8106    73.1288 H6            1 RES     
    1445 H6           4.4082    -5.4306    72.3378 H6            1 RES     
    1446 H6           5.9645    -6.2465    71.9336 H6            1 RES     
    1447 H6           4.7465    -5.9879    70.6473 H6            1 RES     
    1448 H6           3.9889   -11.8934    67.5237 H6            1 RES     
    1449 H6           4.3535   -11.0202    69.0421 H6            1 RES     
    1450 H6           4.4810    -8.8566    67.5012 H6            1 RES     
    1451 H6           4.3035    -9.9497    66.1227 H6            1 RES     
    1452 H6           6.6256    -9.3035    66.5703 H6            1 RES     
    1453 H6           6.5471    -9.9477    68.2480 H6            1 RES     
    1454 H6           6.2751   -11.6560    65.6737 H6            1 RES     
    1455 H6           6.2201   -12.2564    67.3723 H6            1 RES     
    1456 H6           8.5522   -11.4765    67.7699 H6            1 RES     
    1457 H6           8.3828   -12.7170    66.4763 H6            1 RES     
    1458 H6           8.7225    -9.6885    65.9856 H6            1 RES     
    1459 H6           8.5536   -10.9478    64.7098 H6            1 RES     
    1460 H6          10.8972   -10.1968    65.0655 H6            1 RES     
    1461 H6          10.8357   -10.7016    66.7916 H6            1 RES     
    1462 H6          10.5630   -13.0980    66.0649 H6            1 RES     
    1463 H6          12.0286   -12.3538    65.3511 H6            1 RES     
    1464 H6          10.5544   -12.5626    64.3331 H6            1 RES     
    1465 C0         -10.3134   -16.5280    61.5405 C0            1 RES     
    1466 C0         -11.8007   -16.5283    61.8954 C0            1 RES     
    1467 C0         -12.0150   -16.0190    63.1323 C0            1 RES     
    1468 S1         -13.6349   -15.9393    63.5459 S1            1 RES     
    1469 C0         -14.1274   -16.5950    62.0527 C0            1 RES     
    1470 C0         -12.9991   -16.8116    61.2433 C0            1 RES     
    1471 C0         -10.7885   -15.5332    63.6637 C0            1 RES     
    1472 C0          -9.8440   -15.7416    62.7743 C0            1 RES     
    1473 C0          -8.6226   -15.0375    63.1180 C0            1 RES     
    1474 C0          -8.7752   -14.3522    64.3138 C0            1 RES     
    1475 S1         -10.3918   -14.5437    65.0924 S1            1 RES     
    1476 H2         -13.0807   -17.1050    60.2185 H2            1 RES     
    1477 H2          -7.7647   -14.9235    62.4780 H2            1 RES     
    1478 N3         -17.0307   -18.0953    60.1793 N3            1 RES     
    1479 C0         -15.7657   -17.7966    60.5917 C0            1 RES     
    1480 C0         -15.5262   -16.8754    61.6312 C0            1 RES     
    1481 C0         -16.6522   -16.2883    62.2317 C0            1 RES     
    1482 N3         -16.6001   -15.3802    63.2425 N3            1 RES     
    1483 S1         -18.1976   -15.0381    63.4992 S1            1 RES     
    1484 N3         -18.9877   -15.9813    62.3973 N3            1 RES     
    1485 C0         -17.9581   -16.6104    61.7744 C0            1 RES     
    1486 C0         -18.1300   -17.5231    60.7420 C0            1 RES     
    1487 H4         -14.9418   -18.3075    60.1256 H4            1 RES     
    1488 C5         -17.6345   -16.6707    54.9218 C5            1 RES     
    1489 C5         -16.6886   -15.8568    55.8061 C5            1 RES     
    1490 C5         -15.9335   -16.7021    56.8472 C5            1 RES     
    1491 C5         -15.0113   -17.7764    56.2378 C5            1 RES     
    1492 C5         -14.2606   -18.5324    57.3478 C5            1 RES     
    1493 C5         -13.4927   -19.7529    56.8208 C5            1 RES     
    1494 C5         -12.8089   -20.5562    57.9527 C5            1 RES     
    1495 C5         -11.4607   -19.9616    58.4666 C5            1 RES     
    1496 C5         -11.4098   -19.5366    59.9666 C5            1 RES     
    1497 C5         -11.6989   -20.7254    60.9290 C5            1 RES     
    1498 C5         -12.2348   -20.2600    62.2958 C5            1 RES     
    1499 C5         -12.9911   -21.3930    63.0221 C5            1 RES     
    1500 C5         -13.7627   -20.8503    64.2385 C5            1 RES     
    1501 C5         -14.7671   -21.8599    64.8229 C5            1 RES     
    1502 C5         -14.1146   -23.0987    65.4262 C5            1 RES     
    1503 C5         -10.0374   -18.8283    60.2097 C5            1 RES     
    1504 C0          -9.6229   -17.9615    61.4606 C0            1 RES     
    1505 C5          -8.0390   -17.8501    61.3732 C5            1 RES     
    1506 C5          -7.2618   -18.7870    62.3574 C5            1 RES     
    1507 C5          -7.0624   -18.1735    63.7826 C5            1 RES     
    1508 C5          -5.9977   -17.0561    63.8852 C5            1 RES     
    1509 C5          -5.9520   -16.3470    65.2509 C5            1 RES     
    1510 C5          -5.3848   -17.1838    66.4134 C5            1 RES     
    1511 C5          -3.9126   -17.6190    66.2488 C5            1 RES     
    1512 C5          -2.9395   -16.4437    66.1088 C5            1 RES     
    1513 C5          -5.9400   -19.3713    61.7568 C5            1 RES     
    1514 C5          -5.0000   -18.3973    61.0003 C5            1 RES     
    1515 C5          -3.6348   -19.0257    60.6397 C5            1 RES     
    1516 C5          -3.7313   -20.2714    59.7385 C5            1 RES     
    1517 C5          -2.3581   -20.8760    59.3821 C5            1 RES     
    1518 C5          -1.5021   -19.9640    58.4819 C5            1 RES     
    1519 C5          -0.1307   -20.5668    58.1278 C5            1 RES     
    1520 C5          -0.2173   -21.8505    57.3008 C5            1 RES     
    1521 H6         -17.0718   -17.3912    54.2943 H6            1 RES     
    1522 H6         -18.1829   -15.9848    54.2414 H6            1 RES     
    1523 H6         -18.3745   -17.2181    55.5434 H6            1 RES     
    1524 H6         -15.9638   -15.3112    55.1653 H6            1 RES     
    1525 H6         -17.2986   -15.1054    56.3551 H6            1 RES     
    1526 H6         -15.3217   -16.0096    57.4652 H6            1 RES     
    1527 H6         -16.6774   -17.1922    57.5134 H6            1 RES     
    1528 H6         -14.2773   -17.3086    55.5459 H6            1 RES     
    1529 H6         -15.6329   -18.5002    55.6699 H6            1 RES     
    1530 H6         -13.5777   -17.8354    57.8790 H6            1 RES     
    1531 H6         -15.0218   -18.9233    58.0510 H6            1 RES     
    1532 H6         -14.2501   -20.4193    56.3512 H6            1 RES     
    1533 H6         -12.7534   -19.4752    56.0390 H6            1 RES     
    1534 H6         -13.5565   -20.7293    58.7529 H6            1 RES     
    1535 H6         -12.5618   -21.5542    57.5325 H6            1 RES     
    1536 H6         -11.2361   -19.0690    57.8404 H6            1 RES     
    1537 H6         -10.6428   -20.6867    58.2645 H6            1 RES     
    1538 H6         -12.2333   -18.8614    60.0347 H6            1 RES     
    1539 H6         -12.5235   -21.3119    60.4889 H6            1 RES     
    1540 H6         -10.8420   -21.4278    61.0172 H6            1 RES     
    1541 H6         -11.4286   -19.8216    62.9212 H6            1 RES     
    1542 H6         -12.9946   -19.4748    62.0990 H6            1 RES     
    1543 H6         -12.2956   -22.2105    63.3094 H6            1 RES     
    1544 H6         -13.7491   -21.8053    62.3194 H6            1 RES     
    1545 H6         -13.0553   -20.4982    65.0189 H6            1 RES     
    1546 H6         -14.3701   -19.9798    63.9033 H6            1 RES     
    1547 H6         -15.4851   -22.1714    64.0316 H6            1 RES     
    1548 H6         -15.3462   -21.3503    65.6235 H6            1 RES     
    1549 H6         -13.4227   -22.8060    66.2433 H6            1 RES     
    1550 H6         -13.5626   -23.6737    64.6552 H6            1 RES     
    1551 H6         -14.9053   -23.7558    65.8482 H6            1 RES     
    1552 H6          -9.8516   -18.1479    59.3490 H6            1 RES     
    1553 H6          -9.3067   -19.6664    60.1249 H6            1 RES     
    1554 H6          -7.7361   -18.1185    60.3393 H6            1 RES     
    1555 H6          -7.6504   -16.8239    61.4296 H6            1 RES     
    1556 H6          -7.9049   -19.6838    62.5124 H6            1 RES     
    1557 H6          -8.0464   -17.7909    64.1305 H6            1 RES     
    1558 H6          -6.7545   -18.9837    64.4777 H6            1 RES     
    1559 H6          -4.9890   -17.4503    63.6723 H6            1 RES     
    1560 H6          -6.2194   -16.2874    63.1305 H6            1 RES     
    1561 H6          -5.3338   -15.4302    65.1505 H6            1 RES     
    1562 H6          -6.9750   -16.0112    65.5153 H6            1 RES     
    1563 H6          -6.0141   -18.0857    66.5616 H6            1 RES     
    1564 H6          -5.4568   -16.5702    67.3384 H6            1 RES     
    1565 H6          -3.7979   -18.2956    65.3774 H6            1 RES     
    1566 H6          -3.6246   -18.1927    67.1561 H6            1 RES     
    1567 H6          -3.0230   -15.7627    66.9825 H6            1 RES     
    1568 H6          -1.8987   -16.8278    66.0590 H6            1 RES     
    1569 H6          -3.1295   -15.8725    65.1771 H6            1 RES     
    1570 H6          -6.2341   -20.1427    61.0139 H6            1 RES     
    1571 H6          -5.3913   -19.8915    62.5720 H6            1 RES     
    1572 H6          -4.7704   -17.4991    61.5910 H6            1 RES     
    1573 H6          -5.4920   -18.0448    60.0718 H6            1 RES     
    1574 H6          -3.0486   -18.2381    60.1230 H6            1 RES     
    1575 H6          -3.1005   -19.2958    61.5771 H6            1 RES     
    1576 H6          -4.2820   -20.0273    58.8045 H6            1 RES     
    1577 H6          -4.2945   -21.0576    60.2833 H6            1 RES     
    1578 H6          -1.8044   -21.1169    60.3162 H6            1 RES     
    1579 H6          -2.5556   -21.8244    58.8410 H6            1 RES     
    1580 H6          -1.3023   -19.0086    59.0077 H6            1 RES     
    1581 H6          -2.0567   -19.7387    57.5448 H6            1 RES     
    1582 H6           0.4286   -19.8154    57.5288 H6            1 RES     
    1583 H6           0.4457   -20.7646    59.0574 H6            1 RES     
    1584 H6          -0.7059   -22.6654    57.8718 H6            1 RES     
    1585 H6           0.8081   -22.1885    57.0403 H6            1 RES     
    1586 H6          -0.7790   -21.6668    56.3607 H6            1 RES     
    1587 C0         -21.9530   -18.6059    57.4939 C0            1 RES     
    1588 C0         -23.2907   -18.2919    58.1645 C0            1 RES     
    1589 C0         -23.1482   -18.1280    59.5017 C0            1 RES     
    1590 S1         -24.5748   -17.7207    60.2765 S1            1 RES     
    1591 C0         -25.4612   -17.7446    58.8219 C0            1 RES     
    1592 C0         -24.5941   -18.0230    57.7516 C0            1 RES     
    1593 C0         -21.7683   -18.1845    59.8415 C0            1 RES     
    1594 C0         -21.0811   -18.3802    58.7388 C0            1 RES     
    1595 C0         -19.6598   -18.1808    58.9532 C0            1 RES     
    1596 C0         -19.4071   -17.8615    60.2788 C0            1 RES     
    1597 S1         -20.8695   -17.8098    61.3347 S1            1 RES     
    1598 H2         -24.9113   -17.9683    56.7320 H2            1 RES     
    1599 H2         -18.9114   -18.1306    58.1812 H2            1 RES     
    1600 N3         -28.9301   -17.7512    57.3535 N3            1 RES     
    1601 C0         -27.5932   -17.9545    57.5284 C0            1 RES     
    1602 C0         -26.9182   -17.4842    58.6728 C0            1 RES     
    1603 C0         -27.6896   -16.8067    59.6316 C0            1 RES     
    1604 N3         -27.1978   -16.2871    60.7880 N3            1 RES     
    1605 S1         -28.5385   -15.6004    61.4706 S1            1 RES     
    1606 N3         -29.7431   -15.9178    60.3860 N3            1 RES     
    1607 C0         -29.0788   -16.6001    59.4180 C0            1 RES     
    1608 C0         -29.6869   -17.0837    58.2670 C0            1 RES     
    1609 H4         -27.0596   -18.5168    56.7825 H4            1 RES     
    1610 C5         -29.7577   -14.7409    52.8491 C5            1 RES     
    1611 C5         -28.4812   -14.5217    53.6627 C5            1 RES     
    1612 C5         -27.9114   -15.8113    54.2799 C5            1 RES     
    1613 C5         -27.4932   -16.8742    53.2448 C5            1 RES     
    1614 C5         -26.8881   -18.1009    53.9490 C5            1 RES     
    1615 C5         -26.6509   -19.2782    52.9925 C5            1 RES     
    1616 C5         -26.1208   -20.5358    53.7216 C5            1 RES     
    1617 C5         -24.5938   -20.5219    54.0429 C5            1 RES     
    1618 C5         -24.1950   -20.5867    55.5495 C5            1 RES     
    1619 C5         -24.7242   -21.8736    56.2473 C5            1 RES     
    1620 C5         -24.8780   -21.6975    57.7695 C5            1 RES     
    1621 C5         -25.8578   -22.7329    58.3622 C5            1 RES     
    1622 C5         -26.2269   -22.3759    59.8134 C5            1 RES     
    1623 C5         -27.4169   -23.1871    60.3567 C5            1 RES     
    1624 C5         -27.1348   -24.6794    60.4910 C5            1 RES     
    1625 C5         -22.6455   -20.3964    55.6357 C5            1 RES     
    1626 C0         -21.7958   -20.0868    56.9280 C0            1 RES     
    1627 C5         -20.2936   -20.4048    56.5145 C5            1 RES     
    1628 C5         -19.7416   -21.7677    57.0516 C5            1 RES     
    1629 C5         -19.1521   -21.6801    58.4980 C5            1 RES     
    1630 C5         -17.7737   -20.9882    58.6162 C5            1 RES     
    1631 C5         -17.3042   -20.7526    60.0633 C5            1 RES     
    1632 C5         -16.8898   -22.0172    60.8397 C5            1 RES     
    1633 C5         -15.6840   -22.7807    60.2507 C5            1 RES     
    1634 C5         -14.4058   -21.9392    60.1736 C5            1 RES     
    1635 C5         -18.7867   -22.4976    56.0492 C5            1 RES     
    1636 C5         -17.6926   -21.6504    55.3494 C5            1 RES     
    1637 C5         -16.6782   -22.5031    54.5540 C5            1 RES     
    1638 C5         -17.3080   -23.3507    53.4324 C5            1 RES     
    1639 C5         -16.2777   -24.1851    52.6448 C5            1 RES     
    1640 C5         -15.3027   -23.3289    51.8134 C5            1 RES     
    1641 C5         -14.2732   -24.1619    51.0288 C5            1 RES     
    1642 C5         -14.8959   -25.0687    49.9662 C5            1 RES     
    1643 H6         -29.5599   -15.3740    51.9606 H6            1 RES     
    1644 H6         -30.1370   -13.7607    52.4893 H6            1 RES     
    1645 H6         -30.5425   -15.2150    53.4760 H6            1 RES     
    1646 H6         -27.7138   -14.0394    53.0206 H6            1 RES     
    1647 H6         -28.7239   -13.8241    54.4948 H6            1 RES     
    1648 H6         -27.0242   -15.5313    54.8884 H6            1 RES     
    1649 H6         -28.6746   -16.2450    54.9632 H6            1 RES     
    1650 H6         -26.7502   -16.4505    52.5342 H6            1 RES     
    1651 H6         -28.3929   -17.1947    52.6786 H6            1 RES     
    1652 H6         -25.9453   -17.8114    54.4605 H6            1 RES     
    1653 H6         -27.6294   -18.4500    54.6944 H6            1 RES     
    1654 H6         -27.6443   -19.5368    52.5633 H6            1 RES     
    1655 H6         -25.9786   -19.0035    52.1514 H6            1 RES     
    1656 H6         -26.7635   -20.7180    54.6064 H6            1 RES     
    1657 H6         -26.2805   -21.3945    53.0353 H6            1 RES     
    1658 H6         -24.1759   -19.5861    53.6084 H6            1 RES     
    1659 H6         -24.0998   -21.3555    53.4981 H6            1 RES     
    1660 H6         -24.7295   -19.7581    55.9571 H6            1 RES     
    1661 H6         -25.7498   -22.0489    55.8797 H6            1 RES     
    1662 H6         -24.1456   -22.7823    55.9736 H6            1 RES     
    1663 H6         -23.8928   -21.7066    58.2819 H6            1 RES     
    1664 H6         -25.3538   -20.7087    57.9379 H6            1 RES     
    1665 H6         -25.4401   -23.7597    58.2864 H6            1 RES     
    1666 H6         -26.8002   -22.6909    57.7721 H6            1 RES     
    1667 H6         -25.3407   -22.4814    60.4744 H6            1 RES     
    1668 H6         -26.5516   -21.3113    59.8365 H6            1 RES     
    1669 H6         -28.3011   -23.0384    59.6972 H6            1 RES     
    1670 H6         -27.6758   -22.7929    61.3634 H6            1 RES     
    1671 H6         -26.2777   -24.8456    61.1764 H6            1 RES     
    1672 H6         -26.9189   -25.1345    59.5031 H6            1 RES     
    1673 H6         -28.0314   -25.1811    60.9149 H6            1 RES     
    1674 H6         -22.3671   -19.5749    54.9386 H6            1 RES     
    1675 H6         -22.2540   -21.3431    55.1952 H6            1 RES     
    1676 H6         -20.2450   -20.4327    55.4056 H6            1 RES     
    1677 H6         -19.5826   -19.5927    56.7200 H6            1 RES     
    1678 H6         -20.6174   -22.4518    57.1336 H6            1 RES     
    1679 H6         -19.8942   -21.1555    59.1381 H6            1 RES     
    1680 H6         -19.0363   -22.7106    58.8969 H6            1 RES     
    1681 H6         -16.9934   -21.5698    58.0955 H6            1 RES     
    1682 H6         -17.8311   -20.0025    58.1318 H6            1 RES     
    1683 H6         -16.4373   -20.0593    60.0431 H6            1 RES     
    1684 H6         -18.1100   -20.2355    60.6223 H6            1 RES     
    1685 H6         -17.7554   -22.7079    60.9110 H6            1 RES     
    1686 H6         -16.6236   -21.7068    61.8742 H6            1 RES     
    1687 H6         -15.9237   -23.1763    59.2426 H6            1 RES     
    1688 H6         -15.4785   -23.6515    60.9100 H6            1 RES     
    1689 H6         -14.1352   -21.5490    61.1778 H6            1 RES     
    1690 H6         -13.5694   -22.5683    59.8023 H6            1 RES     
    1691 H6         -14.5241   -21.0911    59.4685 H6            1 RES     
    1692 H6         -19.4212   -22.9026    55.2326 H6            1 RES     
    1693 H6         -18.3332   -23.3659    56.5752 H6            1 RES     
    1694 H6         -17.0974   -21.0669    56.0662 H6            1 RES     
    1695 H6         -18.1647   -20.9182    54.6643 H6            1 RES     
    1696 H6         -15.9424   -21.7969    54.1172 H6            1 RES     
    1697 H6         -16.1380   -23.1745    55.2573 H6            1 RES     
    1698 H6         -17.8717   -22.6994    52.7300 H6            1 RES     
    1699 H6         -18.0180   -24.0703    53.8910 H6            1 RES     
    1700 H6         -15.7102   -24.8344    53.3473 H6            1 RES     
    1701 H6         -16.8525   -24.8381    51.9559 H6            1 RES     
    1702 H6         -14.7255   -22.6657    52.4889 H6            1 RES     
    1703 H6         -15.8767   -22.6928    51.1046 H6            1 RES     
    1704 H6         -13.5860   -23.4570    50.5116 H6            1 RES     
    1705 H6         -13.6707   -24.7767    51.7320 H6            1 RES     
    1706 H6         -15.5421   -25.8432    50.4260 H6            1 RES     
    1707 H6         -14.0881   -25.5897    49.4099 H6            1 RES     
    1708 H6         -15.4907   -24.4678    49.2464 H6            1 RES     
    1709 C0         -34.0678   -16.0479    55.8029 C0            1 RES     
    1710 C0         -35.1175   -15.5809    56.8120 C0            1 RES     
    1711 C0         -34.7426   -15.8626    58.0829 C0            1 RES     
    1712 S1         -35.8296   -15.3158    59.2323 S1            1 RES     
    1713 C0         -36.8683   -14.6628    58.0505 C0            1 RES     
    1714 C0         -36.3020   -14.8478    56.7777 C0            1 RES     
    1715 C0         -33.4265   -16.4016    58.0803 C0            1 RES     
    1716 C0         -33.0050   -16.4511    56.8368 C0            1 RES     
    1717 C0         -31.5830   -16.7312    56.7660 C0            1 RES     
    1718 C0         -31.0554   -16.8983    58.0375 C0            1 RES     
    1719 S1         -32.2544   -16.7488    59.3778 S1            1 RES     
    1720 H2         -36.7226   -14.4103    55.8976 H2            1 RES     
    1721 H2         -30.9764   -16.6698    55.8789 H2            1 RES     
    1722 N3         -40.3123   -13.2637    57.4414 N3            1 RES     
    1723 C0         -39.1082   -13.8766    57.2582 C0            1 RES     
    1724 C0         -38.1620   -13.9715    58.2985 C0            1 RES     
    1725 C0         -38.5222   -13.4159    59.5374 C0            1 RES     
    1726 N3         -37.7289   -13.4178    60.6418 N3            1 RES     
    1727 S1         -38.6559   -12.6129    61.7498 S1            1 RES     
    1728 N3         -40.0370   -12.2469    60.9212 N3            1 RES     
    1729 C0         -39.7795   -12.7739    59.6965 C0            1 RES     
    1730 C0         -40.6687   -12.7082    58.6318 C0            1 RES     
    1731 H4         -38.9016   -14.3223    56.3012 H4            1 RES     
    1732 C5         -40.7168    -8.9616    54.0703 C5            1 RES     
    1733 C5         -39.3392    -9.3583    54.6035 C5            1 RES     
    1734 C5         -39.1491   -10.8777    54.7577 C5            1 RES     
    1735 C5         -39.2569   -11.6639    53.4362 C5            1 RES     
    1736 C5         -39.0009   -13.1613    53.6795 C5            1 RES     
    1737 C5         -39.3044   -14.0240    52.4464 C5            1 RES     
    1738 C5         -39.1252   -15.5359    52.7228 C5            1 RES     
    1739 C5         -37.6511   -16.0465    52.6860 C5            1 RES     
    1740 C5         -37.0893   -16.6588    54.0061 C5            1 RES     
    1741 C5         -37.9122   -17.8903    54.4849 C5            1 RES     
    1742 C5         -37.7839   -18.1316    56.0005 C5            1 RES     
    1743 C5         -38.9583   -18.9758    56.5400 C5            1 RES     
    1744 C5         -38.9807   -18.9704    58.0792 C5            1 RES     
    1745 C5         -40.2839   -19.5362    58.6717 C5            1 RES     
    1746 C5         -40.4972   -21.0187    58.3867 C5            1 RES     
    1747 C5         -35.5687   -16.9458    53.7831 C5            1 RES     
    1748 C0         -34.4921   -17.2800    54.8864 C0            1 RES     
    1749 C5         -33.2542   -17.8720    54.0826 C5            1 RES     
    1750 C5         -33.1163   -19.4300    54.1480 C5            1 RES     
    1751 C5         -32.3346   -19.9389    55.4038 C5            1 RES     
    1752 C5         -30.8026   -19.7288    55.3667 C5            1 RES     
    1753 C5         -30.0835   -20.0690    56.6847 C5            1 RES     
    1754 C5         -30.0078   -21.5684    57.0304 C5            1 RES     
    1755 C5         -29.2189   -22.4330    56.0234 C5            1 RES     
    1756 C5         -27.7582   -22.0007    55.8590 C5            1 RES     
    1757 C5         -32.6084   -20.0722    52.8143 C5            1 RES     
    1758 C5         -31.4047   -19.4009    52.1037 C5            1 RES     
    1759 C5         -30.8530   -20.2326    50.9237 C5            1 RES     
    1760 C5         -31.8791   -20.5020    49.8066 C5            1 RES     
    1761 C5         -31.3053   -21.3238    48.6347 C5            1 RES     
    1762 C5         -30.2282   -20.5721    47.8287 C5            1 RES     
    1763 C5         -29.6543   -21.3933    46.6600 C5            1 RES     
    1764 C5         -30.6851   -21.7361    45.5835 C5            1 RES     
    1765 H6         -40.8670    -9.3358    53.0374 H6            1 RES     
    1766 H6         -40.7958    -7.8538    54.0444 H6            1 RES     
    1767 H6         -41.5184    -9.3576    54.7293 H6            1 RES     
    1768 H6         -38.5533    -8.9454    53.9359 H6            1 RES     
    1769 H6         -39.2174    -8.8960    55.6082 H6            1 RES     
    1770 H6         -38.1433   -11.0494    55.1988 H6            1 RES     
    1771 H6         -39.9092   -11.2595    55.4747 H6            1 RES     
    1772 H6         -38.5229   -11.2777    52.6957 H6            1 RES     
    1773 H6         -40.2819   -11.5381    53.0285 H6            1 RES     
    1774 H6         -37.9536   -13.3115    54.0186 H6            1 RES     
    1775 H6         -39.7038   -13.4900    54.4700 H6            1 RES     
    1776 H6         -40.3772   -13.8554    52.2038 H6            1 RES     
    1777 H6         -38.7041   -13.7159    51.5635 H6            1 RES     
    1778 H6         -39.6611   -15.7805    53.6621 H6            1 RES     
    1779 H6         -39.6553   -16.0749    51.9091 H6            1 RES     
    1780 H6         -37.0115   -15.1816    52.3995 H6            1 RES     
    1781 H6         -37.5433   -16.7879    51.8648 H6            1 RES     
    1782 H6         -37.2557   -15.8704    54.7056 H6            1 RES     
    1783 H6         -38.9787   -17.6546    54.3273 H6            1 RES     
    1784 H6         -37.7125   -18.8034    53.8834 H6            1 RES     
    1785 H6         -36.7960   -18.5668    56.2611 H6            1 RES     
    1786 H6         -37.8759   -17.1433    56.4979 H6            1 RES     
    1787 H6         -38.9201   -20.0095    56.1344 H6            1 RES     
    1788 H6         -39.9063   -18.4997    56.2039 H6            1 RES     
    1789 H6         -38.0964   -19.5094    58.4802 H6            1 RES     
    1790 H6         -38.9271   -17.9129    58.4228 H6            1 RES     
    1791 H6         -41.1518   -18.9587    58.2818 H6            1 RES     
    1792 H6         -40.2534   -19.3976    59.7743 H6            1 RES     
    1793 H6         -39.6567   -21.6121    58.8031 H6            1 RES     
    1794 H6         -40.5854   -21.2062    57.2973 H6            1 RES     
    1795 H6         -41.4406   -21.3491    58.8724 H6            1 RES     
    1796 H6         -35.1340   -16.0693    53.2528 H6            1 RES     
    1797 H6         -35.5794   -17.7922    53.0571 H6            1 RES     
    1798 H6         -33.3737   -17.5867    53.0163 H6            1 RES     
    1799 H6         -32.2926   -17.3898    54.3064 H6            1 RES     
    1800 H6         -34.1489   -19.8329    54.2630 H6            1 RES     
    1801 H6         -32.7630   -19.4381    56.2989 H6            1 RES     
    1802 H6         -32.5127   -21.0300    55.5144 H6            1 RES     
    1803 H6         -30.3407   -20.3274    54.5625 H6            1 RES     
    1804 H6         -30.5969   -18.6700    55.1516 H6            1 RES     
    1805 H6         -29.0475   -19.6731    56.6323 H6            1 RES     
    1806 H6         -30.5851   -19.5333    57.5158 H6            1 RES     
    1807 H6         -31.0345   -21.9771    57.1315 H6            1 RES     
    1808 H6         -29.5114   -21.6623    58.0215 H6            1 RES     
    1809 H6         -29.7152   -22.4321    55.0314 H6            1 RES     
    1810 H6         -29.2239   -23.4796    56.3973 H6            1 RES     
    1811 H6         -27.2354   -22.0140    56.8391 H6            1 RES     
    1812 H6         -27.2387   -22.7022    55.1725 H6            1 RES     
    1813 H6         -27.6858   -20.9860    55.4168 H6            1 RES     
    1814 H6         -33.4492   -20.0250    52.0902 H6            1 RES     
    1815 H6         -32.3997   -21.1473    53.0068 H6            1 RES     
    1816 H6         -30.5553   -19.2447    52.7840 H6            1 RES     
    1817 H6         -31.6981   -18.3984    51.7330 H6            1 RES     
    1818 H6         -29.9934   -19.6663    50.5097 H6            1 RES     
    1819 H6         -30.4732   -21.2040    51.3104 H6            1 RES     
    1820 H6         -32.2872   -19.5427    49.4213 H6            1 RES     
    1821 H6         -32.7159   -21.0942    50.2323 H6            1 RES     
    1822 H6         -30.8929   -22.2824    49.0198 H6            1 RES     
    1823 H6         -32.1549   -21.5574    47.9601 H6            1 RES     
    1824 H6         -29.3749   -20.3260    48.4925 H6            1 RES     
    1825 H6         -30.6518   -19.6220    47.4361 H6            1 RES     
    1826 H6         -28.8518   -20.7911    46.1807 H6            1 RES     
    1827 H6         -29.1977   -22.3305    47.0459 H6            1 RES     
    1828 H6         -31.4805   -22.3968    45.9831 H6            1 RES     
    1829 H6         -30.1825   -22.2766    44.7535 H6            1 RES     
    1830 H6         -31.1415   -20.8090    45.1769 H6            1 RES     
    1831 C0         -44.7571    -9.8085    57.5299 C0            1 RES     
    1832 C0         -45.4398    -9.3819    58.8299 C0            1 RES     
    1833 C0         -45.0054   -10.1166    59.8819 C0            1 RES     
    1834 S1         -45.6768    -9.6476    61.3416 S1            1 RES     
    1835 C0         -46.5947    -8.4129    60.6102 C0            1 RES     
    1836 C0         -46.3062    -8.3688    59.2356 C0            1 RES     
    1837 C0         -43.9569   -10.9786    59.4570 C0            1 RES     
    1838 C0         -43.7545   -10.7784    58.1743 C0            1 RES     
    1839 C0         -42.5308   -11.4136    57.7216 C0            1 RES     
    1840 C0         -41.9159   -12.0867    58.7664 C0            1 RES     
    1841 S1         -42.7969   -12.0052    60.3391 S1            1 RES     
    1842 H2         -46.6768    -7.5930    58.6000 H2            1 RES     
    1843 H2         -42.0690   -11.2685    56.7602 H2            1 RES     
    1844 N3         -49.4284    -5.9875    61.1367 N3            1 RES     
    1845 C0         -48.5342    -6.8327    60.5490 C0            1 RES     
    1846 C0         -47.5372    -7.4898    61.2977 C0            1 RES     
    1847 C0         -47.5152    -7.2433    62.6805 C0            1 RES     
    1848 N3         -46.6209    -7.7913    63.5460 N3            1 RES     
    1849 S1         -47.0632    -7.1192    64.9908 S1            1 RES     
    1850 N3         -48.3462    -6.1539    64.6036 N3            1 RES     
    1851 C0         -48.4526    -6.3496    63.2641 C0            1 RES     
    1852 C0         -49.4095    -5.7279    62.4727 C0            1 RES     
    1853 H4         -48.6236    -7.0180    59.4931 H4            1 RES     
    1854 C5         -48.8504    -0.9554    59.0438 C5            1 RES     
    1855 C5         -47.6223    -1.8613    59.1452 C5            1 RES     
    1856 C5         -47.9277    -3.3486    58.8934 C5            1 RES     
    1857 C5         -48.4744    -3.6501    57.4841 C5            1 RES     
    1858 C5         -48.6985    -5.1618    57.3069 C5            1 RES     
    1859 C5         -49.4409    -5.5041    56.0073 C5            1 RES     
    1860 C5         -49.7367    -7.0171    55.8753 C5            1 RES     
    1861 C5         -48.5362    -7.8876    55.3892 C5            1 RES     
    1862 C5         -48.0303    -8.9914    56.3683 C5            1 RES     
    1863 C5         -49.1396   -10.0256    56.7189 C5            1 RES     
    1864 C5         -48.8874   -10.7258    58.0673 C5            1 RES     
    1865 C5         -50.1875   -11.3250    58.6450 C5            1 RES     
    1866 C5         -49.9908   -11.7642    60.1072 C5            1 RES     
    1867 C5         -51.3112   -12.0882    60.8291 C5            1 RES     
    1868 C5         -52.0422   -13.2997    60.2613 C5            1 RES     
    1869 C5         -46.7383    -9.6161    55.7477 C5            1 RES     
    1870 C0         -45.6902   -10.5471    56.4708 C0            1 RES     
    1871 C5         -44.8448   -11.2010    55.2934 C5            1 RES     
    1872 C5         -45.2240   -12.6828    54.9603 C5            1 RES     
    1873 C5         -44.4876   -13.7353    55.8532 C5            1 RES     
    1874 C5         -42.9940   -13.9632    55.5220 C5            1 RES     
    1875 C5         -42.2513   -14.8620    56.5274 C5            1 RES     
    1876 C5         -42.6299   -16.3548    56.4871 C5            1 RES     
    1877 C5         -42.3221   -17.0721    55.1549 C5            1 RES     
    1878 C5         -40.8390   -17.0397    54.7714 C5            1 RES     
    1879 C5         -45.1503   -13.0224    53.4343 C5            1 RES     
    1880 C5         -43.9043   -12.5393    52.6479 C5            1 RES     
    1881 C5         -43.8311   -13.1093    51.2132 C5            1 RES     
    1882 C5         -45.0344   -12.7401    50.3248 C5            1 RES     
    1883 C5         -44.9362   -13.3096    48.8951 C5            1 RES     
    1884 C5         -43.7950   -12.6896    48.0656 C5            1 RES     
    1885 C5         -43.6960   -13.2596    46.6391 C5            1 RES     
    1886 C5         -44.9223   -12.9679    45.7729 C5            1 RES     
    1887 H6         -49.2596    -0.9529    58.0133 H6            1 RES     
    1888 H6         -48.5601     0.0869    59.2958 H6            1 RES     
    1889 H6         -49.6373    -1.2848    59.7552 H6            1 RES     
    1890 H6         -46.8458    -1.5096    58.4332 H6            1 RES     
    1891 H6         -47.2144    -1.7671    60.1761 H6            1 RES     
    1892 H6         -46.9845    -3.9174    59.0440 H6            1 RES     
    1893 H6         -48.6629    -3.6936    59.6537 H6            1 RES     
    1894 H6         -47.7653    -3.2868    56.7085 H6            1 RES     
    1895 H6         -49.4460    -3.1276    57.3587 H6            1 RES     
    1896 H6         -47.7239    -5.6928    57.3566 H6            1 RES     
    1897 H6         -49.3524    -5.4959    58.1361 H6            1 RES     
    1898 H6         -50.4196    -4.9774    56.0589 H6            1 RES     
    1899 H6         -48.9023    -5.1329    55.1089 H6            1 RES     
    1900 H6         -50.1861    -7.3649    56.8273 H6            1 RES     
    1901 H6         -50.5242    -7.1226    55.0992 H6            1 RES     
    1902 H6         -47.6927    -7.1931    55.1761 H6            1 RES     
    1903 H6         -48.7969    -8.3551    54.4150 H6            1 RES     
    1904 H6         -47.8258    -8.4288    57.2516 H6            1 RES     
    1905 H6         -50.0783    -9.4643    56.8651 H6            1 RES     
    1906 H6         -49.3406   -10.7404    55.8918 H6            1 RES     
    1907 H6         -48.0738   -11.4776    57.9895 H6            1 RES     
    1908 H6         -48.5755    -9.9422    58.7893 H6            1 RES     
    1909 H6         -50.5518   -12.1618    58.0113 H6            1 RES     
    1910 H6         -50.9610   -10.5250    58.6518 H6            1 RES     
    1911 H6         -49.2886   -12.6228    60.1614 H6            1 RES     
    1912 H6         -49.5416   -10.9133    60.6671 H6            1 RES     
    1913 H6         -51.9838   -11.2022    60.7906 H6            1 RES     
    1914 H6         -51.0822   -12.2928    61.8975 H6            1 RES     
    1915 H6         -51.3967   -14.2003    60.3272 H6            1 RES     
    1916 H6         -52.3394   -13.1275    59.2069 H6            1 RES     
    1917 H6         -52.9638   -13.4786    60.8560 H6            1 RES     
    1918 H6         -46.1163    -8.7820    55.3530 H6            1 RES     
    1919 H6         -47.1310   -10.1741    54.8658 H6            1 RES     
    1920 H6         -45.0110   -10.5946    54.3783 H6            1 RES     
    1921 H6         -43.7563   -11.0962    55.4011 H6            1 RES     
    1922 H6         -46.3048   -12.7944    55.2076 H6            1 RES     
    1923 H6         -44.5955   -13.4190    56.9134 H6            1 RES     
    1924 H6         -45.0004   -14.7148    55.7431 H6            1 RES     
    1925 H6         -42.8745   -14.4049    54.5176 H6            1 RES     
    1926 H6         -42.4809   -12.9904    55.5196 H6            1 RES     
    1927 H6         -41.1609   -14.7762    56.3369 H6            1 RES     
    1928 H6         -42.4250   -14.4746    57.5515 H6            1 RES     
    1929 H6         -43.7091   -16.4692    56.7186 H6            1 RES     
    1930 H6         -42.0590   -16.8702    57.2908 H6            1 RES     
    1931 H6         -42.9239   -16.6415    54.3286 H6            1 RES     
    1932 H6         -42.6217   -18.1367    55.2653 H6            1 RES     
    1933 H6         -40.2184   -17.4857    55.5775 H6            1 RES     
    1934 H6         -40.6836   -17.6261    53.8411 H6            1 RES     
    1935 H6         -40.4968   -16.0032    54.5737 H6            1 RES     
    1936 H6         -46.0205   -12.5309    52.9499 H6            1 RES     
    1937 H6         -45.2855   -14.1199    53.3184 H6            1 RES     
    1938 H6         -42.9648   -12.8344    53.1365 H6            1 RES     
    1939 H6         -43.8972   -11.4321    52.5975 H6            1 RES     
    1940 H6         -42.8994   -12.7123    50.7602 H6            1 RES     
    1941 H6         -43.7451   -14.2170    51.2666 H6            1 RES     
    1942 H6         -45.1507   -11.6358    50.2763 H6            1 RES     
    1943 H6         -45.9518   -13.1706    50.7776 H6            1 RES     
    1944 H6         -44.8156   -14.4143    48.9425 H6            1 RES     
    1945 H6         -45.9008   -13.0868    48.3938 H6            1 RES     
    1946 H6         -42.8242   -12.8989    48.5587 H6            1 RES     
    1947 H6         -43.9298   -11.5872    48.0116 H6            1 RES     
    1948 H6         -42.8147   -12.7945    46.1456 H6            1 RES     
    1949 H6         -43.5270   -14.3574    46.6824 H6            1 RES     
    1950 H6         -45.8275   -13.4650    46.1758 H6            1 RES     
    1951 H6         -44.7492   -13.3604    44.7485 H6            1 RES     
    1952 H6         -45.0973   -11.8733    45.7077 H6            1 RES     
    1953 C0         -52.4154    -1.6057    63.0286 C0            1 RES     
    1954 C0         -52.7284    -1.4042    64.5117 C0            1 RES     
    1955 C0         -52.4195    -2.5057    65.2373 C0            1 RES     
    1956 S1         -52.6855    -2.3154    66.8788 S1            1 RES     
    1957 C0         -53.2345    -0.7148    66.6822 C0            1 RES     
    1958 C0         -53.1435    -0.3534    65.3272 C0            1 RES     
    1959 C0         -51.7872    -3.4640    64.3979 C0            1 RES     
    1960 C0         -51.7118    -2.9626    63.1857 C0            1 RES     
    1961 C0         -50.8445    -3.7547    62.3336 C0            1 RES     
    1962 C0         -50.3479    -4.8486    63.0261 C0            1 RES     
    1963 S1         -50.9221    -4.9866    64.7312 S1            1 RES     
    1964 H2         -53.3208     0.6458    64.9906 H2            1 RES     
    1965 H2         -50.5004    -3.4706    61.3540 H2            1 RES     
    1966 N3         -54.9991     2.1446    68.3849 N3            1 RES     
    1967 C0         -54.5279     1.2927    67.4302 C0            1 RES     
    1968 C0         -53.7110     0.1926    67.7603 C0            1 RES     
    1969 C0         -53.4148     0.0071    69.1209 C0            1 RES     
    1970 N3         -52.6410    -0.9984    69.6102 N3            1 RES     
    1971 S1         -52.6280    -0.6827    71.2334 S1            1 RES     
    1972 N3         -53.5587     0.6737    71.3816 N3            1 RES     
    1973 C0         -53.9108     0.9167    70.0929 C0            1 RES     
    1974 C0         -54.7080     1.9856    69.7050 C0            1 RES     
    1975 H4         -54.8208     1.4574    66.4083 H4            1 RES     
    1976 C5         -53.0833     7.1936    67.4504 C5            1 RES     
    1977 C5         -52.2241     5.9907    67.0580 C5            1 RES     
    1978 C5         -53.0378     4.7909    66.5413 C5            1 RES     
    1979 C5         -53.8455     5.0815    65.2609 C5            1 RES     
    1980 C5         -54.5812     3.8147    64.7907 C5            1 RES     
    1981 C5         -55.5695     4.0909    63.6488 C5            1 RES     
    1982 C5         -56.3661     2.8299    63.2372 C5            1 RES     
    1983 C5         -55.6034     1.8391    62.3037 C5            1 RES     
    1984 C5         -55.3605     0.4014    62.8580 C5            1 RES     
    1985 C5         -56.6894    -0.3345    63.1980 C5            1 RES     
    1986 C5         -56.4974    -1.4398    64.2531 C5            1 RES     
    1987 C5         -57.8282    -1.7910    64.9525 C5            1 RES     
    1988 C5         -57.5854    -2.6756    66.1887 C5            1 RES     
    1989 C5         -58.8234    -2.8116    67.0932 C5            1 RES     
    1990 C5         -59.9870    -3.5472    66.4379 C5            1 RES     
    1991 C5         -54.4496    -0.3512    61.8341 C5            1 RES     
    1992 C0         -53.6795    -1.7083    62.0645 C0            1 RES     
    1993 C5         -53.2730    -2.1992    60.6076 C5            1 RES     
    1994 C5         -54.1652    -3.3494    60.0319 C5            1 RES     
    1995 C5         -53.7025    -4.7797    60.4648 C5            1 RES     
    1996 C5         -52.4312    -5.3110    59.7619 C5            1 RES     
    1997 C5         -51.8957    -6.6355    60.3356 C5            1 RES     
    1998 C5         -52.7500    -7.8816    60.0342 C5            1 RES     
    1999 C5         -52.8878    -8.2339    58.5372 C5            1 RES     
    2000 C5         -51.5473    -8.5091    57.8479 C5            1 RES     
    2001 C5         -54.4232    -3.2339    58.4926 C5            1 RES     
    2002 C5         -53.2108    -2.9127    57.5809 C5            1 RES     
    2003 C5         -53.5329    -3.0343    56.0742 C5            1 RES     
    2004 C5         -54.6573    -2.0986    55.5911 C5            1 RES     
    2005 C5         -54.9552    -2.2283    54.0837 C5            1 RES     
    2006 C5         -53.8011    -1.7399    53.1868 C5            1 RES     
    2007 C5         -54.0980    -1.8711    51.6821 C5            1 RES     
    2008 C5         -55.2665    -1.0063    51.2072 C5            1 RES     
    2009 H6         -53.6086     7.6125    66.5683 H6            1 RES     
    2010 H6         -52.4312     7.9908    67.8667 H6            1 RES     
    2011 H6         -53.8268     6.9056    68.2236 H6            1 RES     
    2012 H6         -51.4828     6.3021    66.2917 H6            1 RES     
    2013 H6         -51.6678     5.6604    67.9632 H6            1 RES     
    2014 H6         -52.3257     3.9618    66.3384 H6            1 RES     
    2015 H6         -53.7316     4.4599    67.3454 H6            1 RES     
    2016 H6         -53.1723     5.4411    64.4524 H6            1 RES     
    2017 H6         -54.5961     5.8689    65.4833 H6            1 RES     
    2018 H6         -53.8412     3.0408    64.4942 H6            1 RES     
    2019 H6         -55.1857     3.4506    65.6444 H6            1 RES     
    2020 H6         -56.3005     4.8325    64.0411 H6            1 RES     
    2021 H6         -55.0699     4.5416    62.7644 H6            1 RES     
    2022 H6         -56.7673     2.3598    64.1577 H6            1 RES     
    2023 H6         -57.2446     3.1821    62.6558 H6            1 RES     
    2024 H6         -54.6158     2.2989    62.0743 H6            1 RES     
    2025 H6         -56.1383     1.7701    61.3317 H6            1 RES     
    2026 H6         -54.8591     0.5996    63.7788 H6            1 RES     
    2027 H6         -57.3582     0.3998    63.6789 H6            1 RES     
    2028 H6         -57.2301    -0.6891    62.2940 H6            1 RES     
    2029 H6         -55.9989    -2.3330    63.8207 H6            1 RES     
    2030 H6         -55.8452    -1.0227    65.0488 H6            1 RES     
    2031 H6         -58.5346    -2.2679    64.2397 H6            1 RES     
    2032 H6         -58.2831    -0.8443    65.3200 H6            1 RES     
    2033 H6         -57.2077    -3.6736    65.8812 H6            1 RES     
    2034 H6         -56.8054    -2.1881    66.8158 H6            1 RES     
    2035 H6         -59.1622    -1.8015    67.4153 H6            1 RES     
    2036 H6         -58.5279    -3.3757    68.0045 H6            1 RES     
    2037 H6         -59.6745    -4.5711    66.1445 H6            1 RES     
    2038 H6         -60.3550    -2.9977    65.5477 H6            1 RES     
    2039 H6         -60.8227    -3.6256    67.1663 H6            1 RES     
    2040 H6         -53.6479     0.3517    61.5154 H6            1 RES     
    2041 H6         -55.1248    -0.4927    60.9581 H6            1 RES     
    2042 H6         -53.3551    -1.3305    59.9211 H6            1 RES     
    2043 H6         -52.2077    -2.4410    60.4888 H6            1 RES     
    2044 H6         -55.1758    -3.2198    60.4833 H6            1 RES     
    2045 H6         -53.5495    -4.7705    61.5658 H6            1 RES     
    2046 H6         -54.5213    -5.4985    60.2474 H6            1 RES     
    2047 H6         -52.6072    -5.4543    58.6817 H6            1 RES     
    2048 H6         -51.6300    -4.5655    59.8712 H6            1 RES     
    2049 H6         -50.8768    -6.8080    59.9298 H6            1 RES     
    2050 H6         -51.7856    -6.5323    61.4339 H6            1 RES     
    2051 H6         -53.7623    -7.7505    60.4695 H6            1 RES     
    2052 H6         -52.2759    -8.7484    60.5454 H6            1 RES     
    2053 H6         -53.4220    -7.4293    57.9918 H6            1 RES     
    2054 H6         -53.5051    -9.1550    58.4605 H6            1 RES     
    2055 H6         -51.0034    -9.3271    58.3664 H6            1 RES     
    2056 H6         -51.7273    -8.8165    56.7960 H6            1 RES     
    2057 H6         -50.9118    -7.6002    57.8259 H6            1 RES     
    2058 H6         -55.1397    -2.3983    58.3452 H6            1 RES     
    2059 H6         -54.9298    -4.1651    58.1571 H6            1 RES     
    2060 H6         -52.3638    -3.5896    57.7625 H6            1 RES     
    2061 H6         -52.8438    -1.8880    57.7902 H6            1 RES     
    2062 H6         -52.5954    -2.8009    55.5285 H6            1 RES     
    2063 H6         -53.8127    -4.0865    55.8466 H6            1 RES     
    2064 H6         -54.4061    -1.0424    55.8294 H6            1 RES     
    2065 H6         -55.5925    -2.3666    56.1256 H6            1 RES     
    2066 H6         -55.2027    -3.2857    53.8434 H6            1 RES     
    2067 H6         -55.8513    -1.6067    53.8789 H6            1 RES     
    2068 H6         -52.8959    -2.3484    53.3857 H6            1 RES     
    2069 H6         -53.5686    -0.6786    53.4236 H6            1 RES     
    2070 H6         -53.1907    -1.5495    51.1254 H6            1 RES     
    2071 H6         -54.2986    -2.9346    51.4286 H6            1 RES     
    2072 H6         -56.2195    -1.3240    51.6760 H6            1 RES     
    2073 H6         -55.3790    -1.1139    50.1074 H6            1 RES     
    2074 H6         -55.0757     0.0624    51.4405 H6            1 RES     
    2075 C0         -56.0660     6.4356    71.8707 C0            1 RES     
    2076 C0         -56.0831     6.2738    73.3911 C0            1 RES     
    2077 C0         -56.0588     4.9679    73.7506 C0            1 RES     
    2078 S1         -56.0136     4.7363    75.4077 S1            1 RES     
    2079 C0         -56.0221     6.4111    75.7191 C0            1 RES     
    2080 C0         -56.0072     7.1123    74.5014 C0            1 RES     
    2081 C0         -55.9047     4.1599    72.5904 C0            1 RES     
    2082 C0         -55.8379     4.9517    71.5439 C0            1 RES     
    2083 C0         -55.4113     4.2332    70.3575 C0            1 RES     
    2084 C0         -55.2139     2.8912    70.6452 C0            1 RES     
    2085 S1         -55.5563     2.4275    72.3552 S1            1 RES     
    2086 H2         -55.8882     8.1739    74.4564 H2            1 RES     
    2087 H2         -55.1333     4.6828    69.4198 H2            1 RES     
    2088 N3         -56.4804     9.0223    78.3951 N3            1 RES     
    2089 C0         -56.4574     8.3906    77.1869 C0            1 RES     
    2090 C0         -56.0142     7.0589    77.0582 C0            1 RES     
    2091 C0         -55.6087     6.4079    78.2351 C0            1 RES     
    2092 N3         -55.1521     5.1281    78.2888 N3            1 RES     
    2093 S1         -54.8075     4.9381    79.8950 S1            1 RES     
    2094 N3         -55.2048     6.3960    80.5617 N3            1 RES     
    2095 C0         -55.6332     7.0943    79.4787 C0            1 RES     
    2096 C0         -56.0765     8.4088    79.5411 C0            1 RES     
    2097 H4         -56.8193     8.9226    76.3248 H4            1 RES     
    2098 C5         -53.1485    13.3716    78.2588 C5            1 RES     
    2099 C5         -52.8013    12.1454    77.4131 C5            1 RES     
    2100 C5         -54.0310    11.4289    76.8275 C5            1 RES     
    2101 C5         -54.8675    12.2963    75.8662 C5            1 RES     
    2102 C5         -56.0401    11.4830    75.2913 C5            1 RES     
    2103 C5         -57.0305    12.3475    74.4983 C5            1 RES     
    2104 C5         -58.2499    11.5394    73.9939 C5            1 RES     
    2105 C5         -57.9981    10.6925    72.7077 C5            1 RES     
    2106 C5         -58.1710     9.1481    72.8416 C5            1 RES     
    2107 C5         -59.6072     8.7497    73.2906 C5            1 RES     
    2108 C5         -59.6471     7.3767    73.9872 C5            1 RES     
    2109 C5         -60.9069     7.2254    74.8665 C5            1 RES     
    2110 C5         -60.8007     5.9869    75.7746 C5            1 RES     
    2111 C5         -61.8739     5.9460    76.8773 C5            1 RES     
    2112 C5         -63.2954     5.7927    76.3477 C5            1 RES     
    2113 C5         -57.7146     8.5038    71.4921 C5            1 RES     
    2114 C0         -57.4144     6.9794    71.2196 C0            1 RES     
    2115 C5         -57.4023     6.8428    69.6353 C5            1 RES     
    2116 C5         -58.6971     6.2110    69.0231 C5            1 RES     
    2117 C5         -58.6795     4.6470    68.9943 C5            1 RES     
    2118 C5         -57.7685     4.0095    67.9189 C5            1 RES     
    2119 C5         -57.6281     2.4806    68.0316 C5            1 RES     
    2120 C5         -58.8809     1.6701    67.6479 C5            1 RES     
    2121 C5         -59.3362     1.8250    66.1807 C5            1 RES     
    2122 C5         -58.2738     1.3983    65.1624 C5            1 RES     
    2123 C5         -59.1152     6.8395    67.6522 C5            1 RES     
    2124 C5         -58.0055     7.0590    66.5917 C5            1 RES     
    2125 C5         -58.5575     7.4793    65.2107 C5            1 RES     
    2126 C5         -59.3636     8.7920    65.2256 C5            1 RES     
    2127 C5         -59.8959     9.1983    63.8365 C5            1 RES     
    2128 C5         -58.7830     9.5827    62.8422 C5            1 RES     
    2129 C5         -59.3145     9.9865    61.4551 C5            1 RES     
    2130 C5         -60.1841    11.2445    61.4712 C5            1 RES     
    2131 H6         -53.6232    14.1603    77.6406 H6            1 RES     
    2132 H6         -52.2172    13.7950    78.6919 H6            1 RES     
    2133 H6         -53.8293    13.0912    79.0904 H6            1 RES     
    2134 H6         -52.1139    12.4458    76.5941 H6            1 RES     
    2135 H6         -52.2650    11.4222    78.0669 H6            1 RES     
    2136 H6         -53.6704    10.5302    76.2815 H6            1 RES     
    2137 H6         -54.6753    11.0861    77.6671 H6            1 RES     
    2138 H6         -54.2335    12.6722    75.0338 H6            1 RES     
    2139 H6         -55.2752    13.1619    76.4295 H6            1 RES     
    2140 H6         -55.6484    10.6544    74.6634 H6            1 RES     
    2141 H6         -56.6053    11.0704    76.1500 H6            1 RES     
    2142 H6         -57.4113    13.1160    75.2072 H6            1 RES     
    2143 H6         -56.5389    12.8777    73.6545 H6            1 RES     
    2144 H6         -58.6511    10.9532    74.8452 H6            1 RES     
    2145 H6         -59.0340    12.2784    73.7241 H6            1 RES     
    2146 H6         -56.9564    10.9023    72.3756 H6            1 RES     
    2147 H6         -58.6563    11.0644    71.8926 H6            1 RES     
    2148 H6         -57.5084     8.9188    73.6459 H6            1 RES     
    2149 H6         -59.9200     9.4681    74.0676 H6            1 RES     
    2150 H6         -60.3561     8.8422    72.4745 H6            1 RES     
    2151 H6         -59.5391     6.5468    73.2573 H6            1 RES     
    2152 H6         -58.7887     7.3417    74.6903 H6            1 RES     
    2153 H6         -61.8241     7.1967    74.2401 H6            1 RES     
    2154 H6         -60.9656     8.1110    75.5377 H6            1 RES     
    2155 H6         -60.8227     5.0585    75.1655 H6            1 RES     
    2156 H6         -59.8234     6.0296    76.3059 H6            1 RES     
    2157 H6         -61.8095     6.8702    77.4941 H6            1 RES     
    2158 H6         -61.6577     5.0807    77.5409 H6            1 RES     
    2159 H6         -63.3848     4.8549    75.7607 H6            1 RES     
    2160 H6         -63.5811     6.6588    75.7169 H6            1 RES     
    2161 H6         -63.9988     5.7429    77.2066 H6            1 RES     
    2162 H6         -56.7782     9.0140    71.1742 H6            1 RES     
    2163 H6         -58.5143     8.8206    70.7825 H6            1 RES     
    2164 H6         -57.2868     7.8608    69.2073 H6            1 RES     
    2165 H6         -56.5056     6.3570    69.2264 H6            1 RES     
    2166 H6         -59.5336     6.4815    69.7079 H6            1 RES     
    2167 H6         -58.3794     4.2901    70.0034 H6            1 RES     
    2168 H6         -59.7123     4.2839    68.8052 H6            1 RES     
    2169 H6         -58.1317     4.2442    66.9033 H6            1 RES     
    2170 H6         -56.7583     4.4336    68.0159 H6            1 RES     
    2171 H6         -56.7918     2.1552    67.3780 H6            1 RES     
    2172 H6         -57.3371     2.2225    69.0698 H6            1 RES     
    2173 H6         -59.7206     1.9472    68.3183 H6            1 RES     
    2174 H6         -58.6546     0.5951    67.8222 H6            1 RES     
    2175 H6         -59.6440     2.8701    65.9730 H6            1 RES     
    2176 H6         -60.2285     1.1792    66.0321 H6            1 RES     
    2177 H6         -57.9652     0.3459    65.3394 H6            1 RES     
    2178 H6         -58.6912     1.4757    64.1363 H6            1 RES     
    2179 H6         -57.3823     2.0566    65.2108 H6            1 RES     
    2180 H6         -59.5270     7.8479    67.8693 H6            1 RES     
    2181 H6         -59.9440     6.2291    67.2315 H6            1 RES     
    2182 H6         -57.4146     6.1490    66.4145 H6            1 RES     
    2183 H6         -57.2937     7.8310    66.9463 H6            1 RES     
    2184 H6         -57.6821     7.5887    64.5379 H6            1 RES     
    2185 H6         -59.1998     6.6629    64.8127 H6            1 RES     
    2186 H6         -58.7454     9.6169    65.6411 H6            1 RES     
    2187 H6         -60.2501     8.6537    65.8792 H6            1 RES     
    2188 H6         -60.5115     8.3718    63.4180 H6            1 RES     
    2189 H6         -60.5543    10.0784    63.9898 H6            1 RES     
    2190 H6         -58.1127     8.7138    62.6843 H6            1 RES     
    2191 H6         -58.1807    10.4180    63.2617 H6            1 RES     
    2192 H6         -58.4394    10.1883    60.7993 H6            1 RES     
    2193 H6         -59.8902     9.1451    61.0122 H6            1 RES     
    2194 H6         -61.1128    11.0849    62.0551 H6            1 RES     
    2195 H6         -60.4789    11.4996    60.4311 H6            1 RES     
    2196 H6         -59.6186    12.0993    61.8985 H6            1 RES     
    2197 C0         -55.5627    12.2240    82.9348 C0            1 RES     
    2198 C0         -55.4192    11.6360    84.3389 C0            1 RES     
    2199 C0         -55.7796    10.3305    84.3685 C0            1 RES     
    2200 S1         -55.5820     9.6212    85.8717 S1            1 RES     
    2201 C0         -54.9903    11.0631    86.5594 C0            1 RES     
    2202 C0         -54.9144    12.0561    85.5679 C0            1 RES     
    2203 C0         -56.0666     9.8882    83.0477 C0            1 RES     
    2204 C0         -55.8882    10.8993    82.2277 C0            1 RES     
    2205 C0         -55.8951    10.4699    80.8416 C0            1 RES     
    2206 C0         -56.1161     9.1036    80.7558 C0            1 RES     
    2207 S1         -56.3496     8.2758    82.3421 S1            1 RES     
    2208 H2         -54.4574    13.0060    85.7465 H2            1 RES     
    2209 H2         -55.6181    11.0769    79.9970 H2            1 RES     
    2210 N3         -54.1760    12.7954    89.8036 N3            1 RES     
    2211 C0         -54.5336    12.5652    88.5081 C0            1 RES     
    2212 C0         -54.5802    11.2611    87.9755 C0            1 RES     
    2213 C0         -54.2530    10.2077    88.8453 C0            1 RES     
    2214 N3         -54.2443     8.8940    88.4944 N3            1 RES     
    2215 S1         -53.7607     8.1533    89.8916 S1            1 RES     
    2216 N3         -53.5539     9.4024    90.9522 N3            1 RES     
    2217 C0         -53.8737    10.4780    90.1874 C0            1 RES     
    2218 C0         -53.8422    11.7858    90.6533 C0            1 RES     
    2219 H4         -54.8155    13.4054    87.8984 H4            1 RES     
    2220 C5         -49.6434    15.8734    89.9399 C5            1 RES     
    2221 C5         -49.8451    14.9025    88.7754 C5            1 RES     
    2222 C5         -51.3122    14.7649    88.3311 C5            1 RES     
    2223 C5         -51.9394    16.0742    87.8129 C5            1 RES     
    2224 C5         -53.3838    15.8288    87.3433 C5            1 RES     
    2225 C5         -54.1319    17.1294    87.0182 C5            1 RES     
    2226 C5         -55.6083    16.8814    86.6271 C5            1 RES     
    2227 C5         -55.8349    16.4130    85.1559 C5            1 RES     
    2228 C5         -56.4899    15.0109    84.9608 C5            1 RES     
    2229 C5         -57.8989    14.9192    85.6160 C5            1 RES     
    2230 C5         -58.2942    13.4718    85.9633 C5            1 RES     
    2231 C5         -59.3964    13.4304    87.0434 C5            1 RES     
    2232 C5         -59.5810    12.0029    87.5892 C5            1 RES     
    2233 C5         -60.4411    11.9446    88.8644 C5            1 RES     
    2234 C5         -61.8923    12.3592    88.6479 C5            1 RES     
    2235 C5         -56.4673    14.6886    83.4310 C5            1 RES     
    2236 C0         -56.7314    13.2908    82.7496 C0            1 RES     
    2237 C5         -56.9876    13.6261    81.2164 C5            1 RES     
    2238 C5         -58.4910    13.5919    80.7815 C5            1 RES     
    2239 C5         -58.9976    12.1659    80.3850 C5            1 RES     
    2240 C5         -58.5101    11.6419    79.0137 C5            1 RES     
    2241 C5         -58.8709    10.1720    78.7316 C5            1 RES     
    2242 C5         -60.3623     9.8959    78.4616 C5            1 RES     
    2243 C5         -60.9414    10.5948    77.2125 C5            1 RES     
    2244 C5         -60.2346    10.2040    75.9103 C5            1 RES     
    2245 C5         -58.8646    14.6850    79.7257 C5            1 RES     
    2246 C5         -57.9052    14.8839    78.5239 C5            1 RES     
    2247 C5         -58.4743    15.8274    77.4401 C5            1 RES     
    2248 C5         -58.7885    17.2495    77.9424 C5            1 RES     
    2249 C5         -59.3449    18.1770    76.8433 C5            1 RES     
    2250 C5         -58.3186    18.5063    75.7419 C5            1 RES     
    2251 C5         -58.8748    19.4307    74.6439 C5            1 RES     
    2252 C5         -59.2662    20.8203    75.1487 C5            1 RES     
    2253 H6         -49.9112    16.9086    89.6463 H6            1 RES     
    2254 H6         -48.5735    15.8717    90.2386 H6            1 RES     
    2255 H6         -50.2550    15.5652    90.8144 H6            1 RES     
    2256 H6         -49.2190    15.2235    87.9160 H6            1 RES     
    2257 H6         -49.4932    13.8995    89.1041 H6            1 RES     
    2258 H6         -51.3506    14.0019    87.5236 H6            1 RES     
    2259 H6         -51.9093    14.3871    89.1904 H6            1 RES     
    2260 H6         -51.3399    16.4831    86.9704 H6            1 RES     
    2261 H6         -51.9534    16.8151    88.6397 H6            1 RES     
    2262 H6         -53.3814    15.1451    86.4676 H6            1 RES     
    2263 H6         -53.9275    15.3594    88.1864 H6            1 RES     
    2264 H6         -54.1327    17.7314    87.9540 H6            1 RES     
    2265 H6         -53.6156    17.7227    86.2331 H6            1 RES     
    2266 H6         -56.0577    16.2094    87.3858 H6            1 RES     
    2267 H6         -56.1323    17.8562    86.7211 H6            1 RES     
    2268 H6         -54.8401    16.4089    84.6562 H6            1 RES     
    2269 H6         -56.4397    17.1764    84.6201 H6            1 RES     
    2270 H6         -55.8352    14.3797    85.5188 H6            1 RES     
    2271 H6         -57.8433    15.4364    86.5892 H6            1 RES     
    2272 H6         -58.6813    15.4532    85.0344 H6            1 RES     
    2273 H6         -58.5712    12.8965    85.0547 H6            1 RES     
    2274 H6         -57.4064    12.9927    86.4268 H6            1 RES     
    2275 H6         -60.3492    13.8454    86.6508 H6            1 RES     
    2276 H6         -59.0630    14.0599    87.8984 H6            1 RES     
    2277 H6         -59.9951    11.3388    86.8012 H6            1 RES     
    2278 H6         -58.5807    11.6116    87.8816 H6            1 RES     
    2279 H6         -59.9878    12.5906    89.6492 H6            1 RES     
    2280 H6         -60.4336    10.8988    89.2413 H6            1 RES     
    2281 H6         -62.3693    11.6990    87.8938 H6            1 RES     
    2282 H6         -61.9597    13.4157    88.3179 H6            1 RES     
    2283 H6         -62.4445    12.2601    89.6072 H6            1 RES     
    2284 H6         -55.4690    14.9846    83.0385 H6            1 RES     
    2285 H6         -57.2076    15.4107    83.0139 H6            1 RES     
    2286 H6         -56.6020    14.6492    81.0234 H6            1 RES     
    2287 H6         -56.3696    13.0496    80.5143 H6            1 RES     
    2288 H6         -59.0854    13.8739    81.6809 H6            1 RES     
    2289 H6         -58.6946    11.4601    81.1885 H6            1 RES     
    2290 H6         -60.1081    12.1798    80.3540 H6            1 RES     
    2291 H6         -58.9135    12.2556    78.1897 H6            1 RES     
    2292 H6         -57.4135    11.7170    78.9770 H6            1 RES     
    2293 H6         -58.2903     9.8307    77.8489 H6            1 RES     
    2294 H6         -58.5395     9.5505    79.5878 H6            1 RES     
    2295 H6         -60.9596    10.1891    79.3496 H6            1 RES     
    2296 H6         -60.4836     8.7987    78.3244 H6            1 RES     
    2297 H6         -60.9107    11.6973    77.3295 H6            1 RES     
    2298 H6         -62.0089    10.2990    77.1221 H6            1 RES     
    2299 H6         -60.2712     9.1037    75.7624 H6            1 RES     
    2300 H6         -60.7422    10.6925    75.0518 H6            1 RES     
    2301 H6         -59.1778    10.5409    75.9090 H6            1 RES     
    2302 H6         -58.8836    15.6589    80.2594 H6            1 RES     
    2303 H6         -59.8992    14.4833    79.3719 H6            1 RES     
    2304 H6         -57.6808    13.9380    78.0107 H6            1 RES     
    2305 H6         -56.9352    15.2856    78.8793 H6            1 RES     
    2306 H6         -57.7157    15.8781    76.6321 H6            1 RES     
    2307 H6         -59.4002    15.3783    77.0177 H6            1 RES     
    2308 H6         -57.8797    17.7080    78.3888 H6            1 RES     
    2309 H6         -59.5697    17.1810    78.7280 H6            1 RES     
    2310 H6         -60.2521    17.7172    76.3930 H6            1 RES     
    2311 H6         -59.6455    19.1216    77.3421 H6            1 RES     
    2312 H6         -58.0038    17.5699    75.2386 H6            1 RES     
    2313 H6         -57.4207    18.9776    76.1980 H6            1 RES     
    2314 H6         -58.0835    19.5610    73.8736 H6            1 RES     
    2315 H6         -59.7532    18.9532    74.1581 H6            1 RES     
    2316 H6         -60.1036    20.7647    75.8730 H6            1 RES     
    2317 H6         -59.6024    21.4407    74.2910 H6            1 RES     
    2318 H6         -58.3951    21.3175    75.6252 H6            1 RES     
    2319 C0         -51.6208    14.1351    94.6387 C0            1 RES     
    2320 C0         -51.4852    13.1465    95.7972 C0            1 RES     
    2321 C0         -52.2506    12.0460    95.6015 C0            1 RES     
    2322 S1         -52.0909    10.9022    96.8131 S1            1 RES     
    2323 C0         -50.9640    11.8524    97.6671 C0            1 RES     
    2324 C0         -50.7026    13.0288    96.9441 C0            1 RES     
    2325 C0         -52.8503    12.1089    94.3135 C0            1 RES     
    2326 C0         -52.4633    13.2228    93.7338 C0            1 RES     
    2327 C0         -52.8066    13.2379    92.3240 C0            1 RES     
    2328 C0         -53.4782    12.0765    91.9735 C0            1 RES     
    2329 S1         -53.7483    10.9213    93.3333 S1            1 RES     
    2330 H2         -49.9360    13.7162    97.2319 H2            1 RES     
    2331 H2         -52.4651    13.9620    91.6045 H2            1 RES     
    2332 N3         -49.1745    12.2574   100.9569 N3            1 RES     
    2333 C0         -49.7662    12.5266    99.7583 C0            1 RES     
    2334 C0         -50.3172    11.5037    98.9605 C0            1 RES     
    2335 C0         -50.2396    10.1944    99.4635 C0            1 RES     
    2336 N3         -50.7167     9.0940    98.8227 N3            1 RES     
    2337 S1         -50.3155     7.8722    99.8625 S1            1 RES     
    2338 N3         -49.5593     8.6453   101.1108 N3            1 RES     
    2339 C0         -49.6079     9.9420   100.7106 C0            1 RES     
    2340 C0         -49.0791    10.9921   101.4497 C0            1 RES     
    2341 H4         -49.8358    13.5522    99.4413 H4            1 RES     
    2342 C5         -43.9057    13.7561   100.7837 C5            1 RES     
    2343 C5         -44.5794    13.2662    99.5009 C5            1 RES     
    2344 C5         -46.0559    13.6830    99.3790 C5            1 RES     
    2345 C5         -46.2790    15.2076    99.3359 C5            1 RES     
    2346 C5         -47.7737    15.5269    99.1597 C5            1 RES     
    2347 C5         -48.0855    17.0211    99.3245 C5            1 RES     
    2348 C5         -49.5999    17.3240    99.2292 C5            1 RES     
    2349 C5         -50.1729    17.3902    97.7793 C5            1 RES     
    2350 C5         -51.2767    16.3500    97.4148 C5            1 RES     
    2351 C5         -52.5296    16.4707    98.3306 C5            1 RES     
    2352 C5         -53.3301    15.1573    98.4100 C5            1 RES     
    2353 C5         -54.2205    15.1134    99.6703 C5            1 RES     
    2354 C5         -54.7900    13.7009    99.8948 C5            1 RES     
    2355 C5         -55.4329    13.5163   101.2811 C5            1 RES     
    2356 C5         -56.6794    14.3666   101.5001 C5            1 RES     
    2357 C5         -51.5771    16.4967    95.8875 C5            1 RES     
    2358 C0         -52.3829    15.4928    94.9760 C0            1 RES     
    2359 C5         -52.7256    16.3200    93.6617 C5            1 RES     
    2360 C5         -54.2003    16.8388    93.5810 C5            1 RES     
    2361 C5         -55.2018    15.7940    92.9871 C5            1 RES     
    2362 C5         -55.1133    15.5793    91.4578 C5            1 RES     
    2363 C5         -55.9771    14.4199    90.9289 C5            1 RES     
    2364 C5         -57.4979    14.6659    90.9450 C5            1 RES     
    2365 C5         -57.9813    15.8330    90.0572 C5            1 RES     
    2366 C5         -57.6343    15.6582    88.5750 C5            1 RES     
    2367 C5         -54.3341    18.2519    92.9218 C5            1 RES     
    2368 C5         -53.5416    18.5156    91.6153 C5            1 RES     
    2369 C5         -53.9113    19.8550    90.9388 C5            1 RES     
    2370 C5         -53.6620    21.0961    91.8168 C5            1 RES     
    2371 C5         -54.0273    22.4219    91.1191 C5            1 RES     
    2372 C5         -53.1150    22.7566    89.9231 C5            1 RES     
    2373 C5         -53.4810    24.0791    89.2256 C5            1 RES     
    2374 C5         -53.3142    25.3115    90.1159 C5            1 RES     
    2375 H6         -43.8530    14.8634   100.8080 H6            1 RES     
    2376 H6         -42.8663    13.3663   100.8249 H6            1 RES     
    2377 H6         -44.4558    13.3905   101.6766 H6            1 RES     
    2378 H6         -44.0093    13.6350    98.6219 H6            1 RES     
    2379 H6         -44.5379    12.1544    99.4983 H6            1 RES     
    2380 H6         -46.4581    13.2328    98.4456 H6            1 RES     
    2381 H6         -46.6177    13.2541   100.2380 H6            1 RES     
    2382 H6         -45.7022    15.6592    98.4994 H6            1 RES     
    2383 H6         -45.9302    15.6468   100.2941 H6            1 RES     
    2384 H6         -48.1211    15.1576    98.1712 H6            1 RES     
    2385 H6         -48.3185    15.0040    99.9701 H6            1 RES     
    2386 H6         -47.7552    17.2977   100.3504 H6            1 RES     
    2387 H6         -47.5170    17.6479    98.6042 H6            1 RES     
    2388 H6         -50.1358    16.6142    99.8912 H6            1 RES     
    2389 H6         -49.7519    18.3348    99.6639 H6            1 RES     
    2390 H6         -49.3164    17.2530    97.0815 H6            1 RES     
    2391 H6         -50.5589    18.4148    97.5870 H6            1 RES     
    2392 H6         -50.7972    15.4257    97.6477 H6            1 RES     
    2393 H6         -52.1697    16.6430    99.3594 H6            1 RES     
    2394 H6         -53.1638    17.3489    98.0813 H6            1 RES     
    2395 H6         -53.9069    14.9753    97.4787 H6            1 RES     
    2396 H6         -52.5960    14.3342    98.5366 H6            1 RES     
    2397 H6         -55.0267    15.8755    99.6105 H6            1 RES     
    2398 H6         -53.5808    15.3447   100.5510 H6            1 RES     
    2399 H6         -55.5072    13.4410    99.0876 H6            1 RES     
    2400 H6         -53.9458    12.9765    99.8547 H6            1 RES     
    2401 H6         -54.6856    13.7497   102.0723 H6            1 RES     
    2402 H6         -55.7202    12.4481   101.3917 H6            1 RES     
    2403 H6         -57.4492    14.1181   100.7400 H6            1 RES     
    2404 H6         -56.4379    15.4478   101.4498 H6            1 RES     
    2405 H6         -57.0929    14.1507   102.5087 H6            1 RES     
    2406 H6         -50.6026    16.6014    95.3604 H6            1 RES     
    2407 H6         -52.0864    17.4869    95.8284 H6            1 RES     
    2408 H6         -52.0534    17.2032    93.6312 H6            1 RES     
    2409 H6         -52.4389    15.8248    92.7237 H6            1 RES     
    2410 H6         -54.5351    17.0005    94.6315 H6            1 RES     
    2411 H6         -55.0407    14.8286    93.5140 H6            1 RES     
    2412 H6         -56.2374    16.1281    93.2112 H6            1 RES     
    2413 H6         -55.4013    16.4947    90.9126 H6            1 RES     
    2414 H6         -54.0705    15.3504    91.1936 H6            1 RES     
    2415 H6         -55.6726    14.2030    89.8835 H6            1 RES     
    2416 H6         -55.7542    13.5082    91.5190 H6            1 RES     
    2417 H6         -57.8333    14.8420    91.9880 H6            1 RES     
    2418 H6         -57.9944    13.7374    90.5863 H6            1 RES     
    2419 H6         -57.5703    16.7979    90.4184 H6            1 RES     
    2420 H6         -59.0879    15.8893    90.1430 H6            1 RES     
    2421 H6         -58.0544    14.7061    88.1863 H6            1 RES     
    2422 H6         -58.0660    16.4986    87.9913 H6            1 RES     
    2423 H6         -56.5368    15.6693    88.4144 H6            1 RES     
    2424 H6         -53.9537    18.9911    93.6584 H6            1 RES     
    2425 H6         -55.4158    18.4620    92.7731 H6            1 RES     
    2426 H6         -53.7182    17.7381    90.8585 H6            1 RES     
    2427 H6         -52.4536    18.5059    91.8269 H6            1 RES     
    2428 H6         -53.3001    19.9245    90.0155 H6            1 RES     
    2429 H6         -54.9833    19.8286    90.6429 H6            1 RES     
    2430 H6         -52.5995    21.1290    92.1414 H6            1 RES     
    2431 H6         -54.3032    21.0233    92.7199 H6            1 RES     
    2432 H6         -55.0893    22.3885    90.7902 H6            1 RES     
    2433 H6         -53.9242    23.2237    91.8793 H6            1 RES     
    2434 H6         -53.2027    21.9595    89.1574 H6            1 RES     
    2435 H6         -52.0570    22.8013    90.2623 H6            1 RES     
    2436 H6         -52.8076    24.2011    88.3492 H6            1 RES     
    2437 H6         -54.5270    24.0319    88.8525 H6            1 RES     
    2438 H6         -54.0122    25.2842    90.9767 H6            1 RES     
    2439 H6         -53.5421    26.2240    89.5251 H6            1 RES     
    2440 H6         -52.2698    25.3815    90.4865 H6            1 RES     
    2441 C0         -45.6684    11.3483   105.2677 C0            1 RES     
    2442 C0         -45.7076    10.0677   106.1021 C0            1 RES     
    2443 C0         -46.8142     9.3344   105.8323 C0            1 RES     
    2444 S1         -46.8750     7.8896   106.6753 S1            1 RES     
    2445 C0         -45.3887     8.1913   107.4511 C0            1 RES     
    2446 C0         -44.8558     9.4045   106.9831 C0            1 RES     
    2447 C0         -47.5334     9.9374   104.7638 C0            1 RES     
    2448 C0         -46.8840    11.0163   104.3885 C0            1 RES     
    2449 C0         -47.3968    11.5392   103.1358 C0            1 RES     
    2450 C0         -48.4580    10.7691   102.6843 C0            1 RES     
    2451 S1         -48.9027     9.3914   103.7616 S1            1 RES     
    2452 H2         -43.8722     9.7329   107.2432 H2            1 RES     
    2453 H2         -46.9388    12.3155   102.5474 H2            1 RES     
    2454 N3         -43.1237     7.0954   110.2544 N3            1 RES     
    2455 C0         -43.7544     7.8586   109.3168 C0            1 RES     
    2456 C0         -44.7197     7.3121   108.4474 C0            1 RES     
    2457 C0         -45.0114     5.9465   108.5999 C0            1 RES     
    2458 N3         -45.9115     5.2624   107.8443 N3            1 RES     
    2459 S1         -45.7970     3.7287   108.4521 S1            1 RES     
    2460 N3         -44.6600     3.8574   109.6431 N3            1 RES     
    2461 C0         -44.3310     5.1733   109.5783 C0            1 RES     
    2462 C0         -43.3856     5.7681   110.4035 C0            1 RES     
    2463 H4         -43.5233     8.9083   109.2722 H4            1 RES     
    2464 C5         -37.7357     7.0343   109.2537 C5            1 RES     
    2465 C5         -38.7065     7.1514   108.0777 C5            1 RES     
    2466 C5         -39.9626     7.9832   108.3923 C5            1 RES     
    2467 C5         -39.6709     9.4520   108.7579 C5            1 RES     
    2468 C5         -40.9839    10.2156   109.0025 C5            1 RES     
    2469 C5         -40.7557    11.6207   109.5776 C5            1 RES     
    2470 C5         -42.0812    12.3513   109.8993 C5            1 RES     
    2471 C5         -42.7971    12.9972   108.6724 C5            1 RES     
    2472 C5         -44.2231    12.4636   108.3334 C5            1 RES     
    2473 C5         -45.2234    12.6582   109.5100 C5            1 RES     
    2474 C5         -46.3948    11.6597   109.4587 C5            1 RES     
    2475 C5         -47.0633    11.5011   110.8412 C5            1 RES     
    2476 C5         -48.0319    10.3046   110.8519 C5            1 RES     
    2477 C5         -48.4985     9.9110   112.2649 C5            1 RES     
    2478 C5         -49.3484    10.9746   112.9514 C5            1 RES     
    2479 C5         -44.6687    13.1290   106.9906 C5            1 RES     
    2480 C0         -45.8814    12.7049   106.0755 C0            1 RES     
    2481 C5         -46.1108    13.9418   105.1028 C5            1 RES     
    2482 C5         -47.3256    14.8542   105.4798 C5            1 RES     
    2483 C5         -48.6898    14.3548   104.8995 C5            1 RES     
    2484 C5         -48.8929    14.5812   103.3829 C5            1 RES     
    2485 C5         -50.1578    13.9192   102.8065 C5            1 RES     
    2486 C5         -51.4925    14.5670   103.2217 C5            1 RES     
    2487 C5         -51.6805    16.0294   102.7634 C5            1 RES     
    2488 C5         -51.6226    16.2058   101.2424 C5            1 RES     
    2489 C5         -47.0738    16.3762   105.2164 C5            1 RES     
    2490 C5         -46.4302    16.7767   103.8637 C5            1 RES     
    2491 C5         -46.4254    18.3029   103.6199 C5            1 RES     
    2492 C5         -45.6578    19.1101   104.6840 C5            1 RES     
    2493 C5         -45.6563    20.6287   104.4161 C5            1 RES     
    2494 C5         -44.8620    21.0280   103.1573 C5            1 RES     
    2495 C5         -44.8622    22.5438   102.8890 C5            1 RES     
    2496 C5         -44.1727    23.3627   103.9813 C5            1 RES     
    2497 H6         -37.3156     8.0244   109.5235 H6            1 RES     
    2498 H6         -36.8897     6.3737   108.9675 H6            1 RES     
    2499 H6         -38.2450     6.5936   110.1369 H6            1 RES     
    2500 H6         -38.1756     7.5854   107.2039 H6            1 RES     
    2501 H6         -39.0373     6.1244   107.8062 H6            1 RES     
    2502 H6         -40.6182     7.9580   107.4948 H6            1 RES     
    2503 H6         -40.5087     7.4979   109.2312 H6            1 RES     
    2504 H6         -39.1001     9.9473   107.9422 H6            1 RES     
    2505 H6         -39.0654     9.4748   109.6882 H6            1 RES     
    2506 H6         -41.5691    10.2651   108.0595 H6            1 RES     
    2507 H6         -41.5520     9.6538   109.7696 H6            1 RES     
    2508 H6         -40.2119    11.4804   110.5382 H6            1 RES     
    2509 H6         -40.1183    12.2445   108.9146 H6            1 RES     
    2510 H6         -42.7239    11.6595   110.4804 H6            1 RES     
    2511 H6         -41.8266    13.1907   110.5808 H6            1 RES     
    2512 H6         -42.1414    12.8351   107.7874 H6            1 RES     
    2513 H6         -42.8440    14.0984   108.8167 H6            1 RES     
    2514 H6         -44.0499    11.4158   108.2298 H6            1 RES     
    2515 H6         -44.6862    12.4133   110.4423 H6            1 RES     
    2516 H6         -45.5584    13.7120   109.6222 H6            1 RES     
    2517 H6         -47.1238    11.9281   108.6652 H6            1 RES     
    2518 H6         -45.9655    10.6639   109.2208 H6            1 RES     
    2519 H6         -47.5708    12.4418   111.1442 H6            1 RES     
    2520 H6         -46.2663    11.2749   111.5841 H6            1 RES     
    2521 H6         -48.9004    10.5049   110.1892 H6            1 RES     
    2522 H6         -47.4904     9.4169   110.4545 H6            1 RES     
    2523 H6         -47.6131     9.6826   112.8994 H6            1 RES     
    2524 H6         -49.1055     8.9831   112.1847 H6            1 RES     
    2525 H6         -50.2555    11.1863   112.3478 H6            1 RES     
    2526 H6         -48.7713    11.9095   113.1020 H6            1 RES     
    2527 H6         -49.6644    10.5983   113.9482 H6            1 RES     
    2528 H6         -43.7988    13.1049   106.2970 H6            1 RES     
    2529 H6         -44.8235    14.1945   107.2807 H6            1 RES     
    2530 H6         -45.1949    14.5689   105.1287 H6            1 RES     
    2531 H6         -46.1392    13.6831   104.0352 H6            1 RES     
    2532 H6         -47.4370    14.7888   106.5866 H6            1 RES     
    2533 H6         -48.7861    13.2730   105.1362 H6            1 RES     
    2534 H6         -49.5136    14.8858   105.4228 H6            1 RES     
    2535 H6         -48.9343    15.6584   103.1459 H6            1 RES     
    2536 H6         -48.0332    14.1560   102.8446 H6            1 RES     
    2537 H6         -50.0922    13.9413   101.6984 H6            1 RES     
    2538 H6         -50.1697    12.8506   103.1015 H6            1 RES     
    2539 H6         -51.6007    14.5170   104.3250 H6            1 RES     
    2540 H6         -52.3141    13.9630   102.7774 H6            1 RES     
    2541 H6         -50.9263    16.6899   103.2379 H6            1 RES     
    2542 H6         -52.6821    16.3669   103.1071 H6            1 RES     
    2543 H6         -52.3850    15.5675   100.7471 H6            1 RES     
    2544 H6         -51.8283    17.2661   100.9839 H6            1 RES     
    2545 H6         -50.6177    15.9543   100.8459 H6            1 RES     
    2546 H6         -46.3704    16.7293   106.0000 H6            1 RES     
    2547 H6         -48.0339    16.9160   105.3685 H6            1 RES     
    2548 H6         -46.9591    16.3373   103.0060 H6            1 RES     
    2549 H6         -45.3888    16.4001   103.8164 H6            1 RES     
    2550 H6         -45.9616    18.4647   102.6250 H6            1 RES     
    2551 H6         -47.4756    18.6667   103.5752 H6            1 RES     
    2552 H6         -44.6102    18.7464   104.7594 H6            1 RES     
    2553 H6         -46.1535    18.9596   105.6657 H6            1 RES     
    2554 H6         -46.7042    20.9930   104.3364 H6            1 RES     
    2555 H6         -45.1875    21.1101   105.2991 H6            1 RES     
    2556 H6         -45.3157    20.5483   102.2667 H6            1 RES     
    2557 H6         -43.8126    20.6722   103.2504 H6            1 RES     
    2558 H6         -44.3164    22.7224   101.9368 H6            1 RES     
    2559 H6         -45.9059    22.9040   102.7606 H6            1 RES     
    2560 H6         -44.7123    23.2821   104.9464 H6            1 RES     
    2561 H6         -44.1653    24.4336   103.6870 H6            1 RES     
    2562 H6         -43.1233    23.0245   104.1129 H6            1 RES     
    2563 C0         -39.5504     4.0173   113.3298 C0            1 RES     
    2564 C0         -39.8951     2.6136   113.8288 C0            1 RES     
    2565 C0         -41.2086     2.3336   113.6517 C0            1 RES     
    2566 S1         -41.6266     0.7835   114.1253 S1            1 RES     
    2567 C0         -40.0312     0.4143   114.5948 C0            1 RES     
    2568 C0         -39.1970     1.5102   114.3154 C0            1 RES     
    2569 C0         -41.8291     3.3997   112.9438 C0            1 RES     
    2570 C0         -40.9178     4.3129   112.6945 C0            1 RES     
    2571 C0         -41.3983     5.3016   111.7472 C0            1 RES     
    2572 C0         -42.7071     5.0282   111.3794 C0            1 RES     
    2573 S1         -43.4282     3.5789   112.1767 S1            1 RES     
    2574 H2         -38.1340     1.4577   114.4165 H2            1 RES     
    2575 H2         -40.7959     6.0545   111.2688 H2            1 RES     
    2576 N3         -37.8890    -2.0445   116.4802 N3            1 RES     
    2577 C0         -38.3555    -0.8952   115.9137 C0            1 RES     
    2578 C0         -39.5593    -0.8688   115.1811 C0            1 RES     
    2579 C0         -40.2632    -2.0796   115.0721 C0            1 RES     
    2580 N3         -41.4358    -2.2305   114.4004 N3            1 RES     
    2581 S1         -41.7529    -3.8423   114.5913 S1            1 RES     
    2582 N3         -40.4825    -4.3930   115.4918 N3            1 RES     
    2583 C0         -39.7480    -3.2639   115.6638 C0            1 RES     
    2584 C0         -38.5529    -3.2276   116.3702 C0            1 RES     
    2585 H4         -37.7978     0.0122   116.0646 H4            1 RES     
    2586 C5         -33.0234    -3.3226   114.3056 C5            1 RES     
    2587 C5         -34.0551    -2.5984   113.4393 C5            1 RES     
    2588 C5         -34.9067    -1.5771   114.2141 C5            1 RES     
    2589 C5         -34.0958    -0.4237   114.8372 C5            1 RES     
    2590 C5         -35.0328     0.5718   115.5428 C5            1 RES     
    2591 C5         -34.2730     1.6236   116.3635 C5            1 RES     
    2592 C5         -35.2219     2.5698   117.1370 C5            1 RES     
    2593 C5         -35.8473     3.7205   116.2886 C5            1 RES     
    2594 C5         -37.4022     3.7330   116.1645 C5            1 RES     
    2595 C5         -38.1057     3.8478   117.5483 C5            1 RES     
    2596 C5         -39.5371     3.2796   117.5304 C5            1 RES     
    2597 C5         -40.0196     2.9181   118.9516 C5            1 RES     
    2598 C5         -41.3187     2.0939   118.9005 C5            1 RES     
    2599 C5         -41.6865     1.4518   120.2503 C5            1 RES     
    2600 C5         -42.0300     2.4620   121.3394 C5            1 RES     
    2601 C5         -37.7853     4.8594   115.1502 C5            1 RES     
    2602 C0         -39.1856     5.0806   114.4587 C0            1 RES     
    2603 C5         -39.1254     6.5602   113.8792 C5            1 RES     
    2604 C5         -39.9030     7.6254   114.7225 C5            1 RES     
    2605 C5         -41.4227     7.7223   114.3644 C5            1 RES     
    2606 C5         -41.7497     8.4302   113.0284 C5            1 RES     
    2607 C5         -43.2301     8.3495   112.6136 C5            1 RES     
    2608 C5         -44.2019     9.1954   113.4583 C5            1 RES     
    2609 C5         -43.9562    10.7189   113.4086 C5            1 RES     
    2610 C5         -44.0570    11.3089   111.9981 C5            1 RES     
    2611 C5         -39.1999     9.0227   114.7722 C5            1 RES     
    2612 C5         -38.6562     9.6036   113.4412 C5            1 RES     
    2613 C5         -38.1794    11.0684   113.5659 C5            1 RES     
    2614 C5         -37.0462    11.2789   114.5881 C5            1 RES     
    2615 C5         -36.5784    12.7448   114.6890 C5            1 RES     
    2616 C5         -35.8814    13.2548   113.4127 C5            1 RES     
    2617 C5         -35.4161    14.7187   113.5129 C5            1 RES     
    2618 C5         -34.3480    14.9536   114.5821 C5            1 RES     
    2619 H6         -32.2652    -2.6148   114.6974 H6            1 RES     
    2620 H6         -32.4936    -4.0805   113.6900 H6            1 RES     
    2621 H6         -33.5210    -3.8406   115.1528 H6            1 RES     
    2622 H6         -33.5383    -2.0954   112.5946 H6            1 RES     
    2623 H6         -34.7426    -3.3646   113.0171 H6            1 RES     
    2624 H6         -35.6524    -1.1532   113.5070 H6            1 RES     
    2625 H6         -35.4595    -2.1126   115.0173 H6            1 RES     
    2626 H6         -33.5133     0.1072   114.0528 H6            1 RES     
    2627 H6         -33.3929    -0.8453   115.5862 H6            1 RES     
    2628 H6         -35.6946     1.0576   114.7941 H6            1 RES     
    2629 H6         -35.6417    -0.0063   116.2651 H6            1 RES     
    2630 H6         -33.6776     1.0613   117.1168 H6            1 RES     
    2631 H6         -33.5644     2.2085   115.7385 H6            1 RES     
    2632 H6         -35.9695     1.9483   117.6699 H6            1 RES     
    2633 H6         -34.6102     3.0660   117.9203 H6            1 RES     
    2634 H6         -35.4136     3.6470   115.2660 H6            1 RES     
    2635 H6         -35.5054     4.6979   116.6929 H6            1 RES     
    2636 H6         -37.6029     2.7570   115.7828 H6            1 RES     
    2637 H6         -37.5552     3.2002   118.2519 H6            1 RES     
    2638 H6         -38.0528     4.8724   117.9760 H6            1 RES     
    2639 H6         -40.2394     3.9622   117.0067 H6            1 RES     
    2640 H6         -39.5005     2.3185   116.9761 H6            1 RES     
    2641 H6         -40.1382     3.8320   119.5723 H6            1 RES     
    2642 H6         -39.2469     2.2699   119.4220 H6            1 RES     
    2643 H6         -42.1552     2.7150   118.5161 H6            1 RES     
    2644 H6         -41.1639     1.2465   118.1954 H6            1 RES     
    2645 H6         -40.8473     0.8084   120.5976 H6            1 RES     
    2646 H6         -42.5719     0.7980   120.0944 H6            1 RES     
    2647 H6         -42.8905     3.0872   121.0223 H6            1 RES     
    2648 H6         -41.1603     3.1101   121.5703 H6            1 RES     
    2649 H6         -42.3099     1.9153   122.2656 H6            1 RES     
    2650 H6         -37.0791     4.7957   114.2925 H6            1 RES     
    2651 H6         -37.5354     5.7919   115.7083 H6            1 RES     
    2652 H6         -38.0593     6.8682   113.8438 H6            1 RES     
    2653 H6         -39.3875     6.6442   112.8154 H6            1 RES     
    2654 H6         -39.8734     7.2730   115.7793 H6            1 RES     
    2655 H6         -41.8384     6.6914   114.3573 H6            1 RES     
    2656 H6         -41.9416     8.2861   115.1690 H6            1 RES     
    2657 H6         -41.4639     9.4957   113.0651 H6            1 RES     
    2658 H6         -41.1643     7.9574   112.2263 H6            1 RES     
    2659 H6         -43.3170     8.6755   111.5558 H6            1 RES     
    2660 H6         -43.5545     7.2899   112.6457 H6            1 RES     
    2661 H6         -44.1648     8.8573   114.5145 H6            1 RES     
    2662 H6         -45.2312     9.0044   113.0820 H6            1 RES     
    2663 H6         -42.9669    10.9717   113.8418 H6            1 RES     
    2664 H6         -44.7303    11.2084   114.0382 H6            1 RES     
    2665 H6         -45.0494    11.0849   111.5522 H6            1 RES     
    2666 H6         -43.9331    12.4114   112.0475 H6            1 RES     
    2667 H6         -43.2586    10.9126   111.3379 H6            1 RES     
    2668 H6         -38.3166     8.9183   115.4374 H6            1 RES     
    2669 H6         -39.8951     9.7415   115.2584 H6            1 RES     
    2670 H6         -39.4157     9.6017   112.6464 H6            1 RES     
    2671 H6         -37.8165     8.9804   113.0740 H6            1 RES     
    2672 H6         -37.8326    11.3770   112.5582 H6            1 RES     
    2673 H6         -39.0446    11.7093   113.8453 H6            1 RES     
    2674 H6         -36.1792    10.6299   114.3385 H6            1 RES     
    2675 H6         -37.4210    10.9935   115.5932 H6            1 RES     
    2676 H6         -37.4462    13.3958   114.9348 H6            1 RES     
    2677 H6         -35.8575    12.7945   115.5311 H6            1 RES     
    2678 H6         -36.5887    13.2045   112.5604 H6            1 RES     
    2679 H6         -35.0075    12.6072   113.1812 H6            1 RES     
    2680 H6         -34.9812    15.0071   112.5310 H6            1 RES     
    2681 H6         -36.2882    15.3789   113.7108 H6            1 RES     
    2682 H6         -34.7427    14.7493   115.5977 H6            1 RES     
    2683 H6         -34.0269    16.0164   114.5522 H6            1 RES     
    2684 H6         -33.4628    14.3109   114.3912 H6            1 RES     
    2685 C0         -35.1461    -6.7625   117.8654 C0            1 RES     
    2686 C0         -35.8635    -8.0944   118.0872 C0            1 RES     
    2687 C0         -37.2067    -7.9292   118.1501 C0            1 RES     
    2688 S1         -38.0446    -9.3669   118.3302 S1            1 RES     
    2689 C0         -36.6131   -10.2904   118.3287 C0            1 RES     
    2690 C0         -35.5104    -9.4416   118.1325 C0            1 RES     
    2691 C0         -37.5309    -6.5733   117.8693 C0            1 RES     
    2692 C0         -36.4127    -5.9219   117.6415 C0            1 RES     
    2693 C0         -36.6656    -4.6060   117.0846 C0            1 RES     
    2694 C0         -38.0287    -4.3801   116.9677 C0            1 RES     
    2695 S1         -39.0707    -5.7353   117.5458 S1            1 RES     
    2696 H2         -34.5220    -9.8181   117.9764 H2            1 RES     
    2697 H2         -35.9209    -3.9473   116.6722 H2            1 RES     
    2698 N3         -35.1665   -13.6917   119.0553 N3            1 RES     
    2699 C0         -35.2996   -12.3444   118.8929 C0            1 RES     
    2700 C0         -36.5166   -11.7674   118.4773 C0            1 RES     
    2701 C0         -37.5903   -12.6441   118.2500 C0            1 RES     
    2702 N3         -38.8285   -12.2558   117.8436 N3            1 RES     
    2703 S1         -39.6324   -13.6956   117.7191 S1            1 RES     
    2704 N3         -38.5039   -14.8196   118.1561 N3            1 RES     
    2705 C0         -37.4198   -14.0445   118.4170 C0            1 RES     
    2706 C0         -36.1939   -14.5541   118.8245 C0            1 RES     
    2707 H4         -34.4571   -11.7160   119.1220 H4            1 RES     
    2708 C5         -31.3568   -15.5916   115.6039 C5            1 RES     
    2709 C5         -32.2003   -14.3862   115.1859 C5            1 RES     
    2710 C5         -32.5471   -13.4400   116.3492 C5            1 RES     
    2711 C5         -31.3205   -12.7963   117.0252 C5            1 RES     
    2712 C5         -31.7652   -11.8293   118.1362 C5            1 RES     
    2713 C5         -30.5923   -11.3219   118.9870 C5            1 RES     
    2714 C5         -31.0549   -10.4166   120.1534 C5            1 RES     
    2715 C5         -31.3754    -8.9408   119.7606 C5            1 RES     
    2716 C5         -32.8391    -8.4559   119.9964 C5            1 RES     
    2717 C5         -33.2633    -8.5580   121.4906 C5            1 RES     
    2718 C5         -34.7896    -8.6696   121.6634 C5            1 RES     
    2719 C5         -35.1604    -9.2803   123.0320 C5            1 RES     
    2720 C5         -36.6530    -9.6533   123.0838 C5            1 RES     
    2721 C5         -37.0199   -10.5317   124.2934 C5            1 RES     
    2722 C5         -36.8524    -9.8306   125.6369 C5            1 RES     
    2723 C5         -32.9648    -7.0218   119.3863 C5            1 RES     
    2724 C0         -34.2947    -6.2236   119.0993 C0            1 RES     
    2725 C5         -33.8287    -4.7186   118.8832 C5            1 RES     
    2726 C5         -34.0823    -3.7733   120.1048 C5            1 RES     
    2727 C5         -35.5179    -3.1525   120.1310 C5            1 RES     
    2728 C5         -35.7753    -2.0227   119.1063 C5            1 RES     
    2729 C5         -37.2412    -1.5588   119.0286 C5            1 RES     
    2730 C5         -37.7486    -0.7596   120.2440 C5            1 RES     
    2731 C5         -37.0207     0.5783   120.4976 C5            1 RES     
    2732 C5         -37.1166     1.5586   119.3239 C5            1 RES     
    2733 C5         -32.9556    -2.7085   120.3197 C5            1 RES     
    2734 C5         -32.4423    -1.9409   119.0740 C5            1 RES     
    2735 C5         -31.4938    -0.7728   119.4266 C5            1 RES     
    2736 C5         -30.2236    -1.1981   120.1874 C5            1 RES     
    2737 C5         -29.2865    -0.0194   120.5199 C5            1 RES     
    2738 C5         -28.6460     0.6241   119.2747 C5            1 RES     
    2739 C5         -27.7121     1.8019   119.6066 C5            1 RES     
    2740 C5         -26.4878     1.4033   120.4322 C5            1 RES     
    2741 H6         -30.3596   -15.2726   115.9690 H6            1 RES     
    2742 H6         -31.2005   -16.2531   114.7252 H6            1 RES     
    2743 H6         -31.8741   -16.1731   116.3963 H6            1 RES     
    2744 H6         -31.6697   -13.8246   114.3879 H6            1 RES     
    2745 H6         -33.1551   -14.7696   114.7625 H6            1 RES     
    2746 H6         -33.2011   -12.6360   115.9473 H6            1 RES     
    2747 H6         -33.1279   -14.0090   117.1084 H6            1 RES     
    2748 H6         -30.7109   -12.2453   116.2761 H6            1 RES     
    2749 H6         -30.6997   -13.5984   117.4769 H6            1 RES     
    2750 H6         -32.3263   -10.9802   117.6906 H6            1 RES     
    2751 H6         -32.4238   -12.3979   118.8216 H6            1 RES     
    2752 H6         -30.1179   -12.2237   119.4342 H6            1 RES     
    2753 H6         -29.8247   -10.8037   118.3728 H6            1 RES     
    2754 H6         -31.8839   -10.9304   120.6807 H6            1 RES     
    2755 H6         -30.2099   -10.3644   120.8724 H6            1 RES     
    2756 H6         -31.1386    -8.8308   118.6784 H6            1 RES     
    2757 H6         -30.6754    -8.2620   120.2942 H6            1 RES     
    2758 H6         -33.4038    -9.1797   119.4526 H6            1 RES     
    2759 H6         -32.8660    -9.5107   121.8808 H6            1 RES     
    2760 H6         -32.8139    -7.7617   122.1225 H6            1 RES     
    2761 H6         -35.2916    -7.6951   121.4857 H6            1 RES     
    2762 H6         -35.1522    -9.3962   120.9064 H6            1 RES     
    2763 H6         -34.8807    -8.5933   123.8592 H6            1 RES     
    2764 H6         -34.5888   -10.2276   123.1515 H6            1 RES     
    2765 H6         -37.2811    -8.7379   123.0537 H6            1 RES     
    2766 H6         -36.8887   -10.2649   122.1840 H6            1 RES     
    2767 H6         -36.4020   -11.4573   124.2826 H6            1 RES     
    2768 H6         -38.0847   -10.8347   124.1927 H6            1 RES     
    2769 H6         -37.4921    -8.9244   125.6768 H6            1 RES     
    2770 H6         -35.7936    -9.5503   125.8107 H6            1 RES     
    2771 H6         -37.1651   -10.5225   126.4484 H6            1 RES     
    2772 H6         -32.4474    -7.0277   118.4011 H6            1 RES     
    2773 H6         -32.3440    -6.4032   120.0757 H6            1 RES     
    2774 H6         -32.7369    -4.7266   118.6815 H6            1 RES     
    2775 H6         -34.1944    -4.2569   117.9556 H6            1 RES     
    2776 H6         -34.0235    -4.4129   121.0154 H6            1 RES     
    2777 H6         -36.2489    -3.9758   119.9772 H6            1 RES     
    2778 H6         -35.7020    -2.7268   121.1406 H6            1 RES     
    2779 H6         -35.1500    -1.1400   119.3255 H6            1 RES     
    2780 H6         -35.4986    -2.3847   118.1053 H6            1 RES     
    2781 H6         -37.3624    -0.9268   118.1238 H6            1 RES     
    2782 H6         -37.8911    -2.4454   118.8846 H6            1 RES     
    2783 H6         -37.6781    -1.3882   121.1558 H6            1 RES     
    2784 H6         -38.8249    -0.5347   120.0754 H6            1 RES     
    2785 H6         -35.9532     0.4043   120.7435 H6            1 RES     
    2786 H6         -37.4921     1.0591   121.3817 H6            1 RES     
    2787 H6         -38.1793     1.7634   119.0733 H6            1 RES     
    2788 H6         -36.6283     2.5169   119.6002 H6            1 RES     
    2789 H6         -36.5960     1.1650   118.4269 H6            1 RES     
    2790 H6         -32.0731    -3.2469   120.7256 H6            1 RES     
    2791 H6         -33.2974    -1.9983   121.1041 H6            1 RES     
    2792 H6         -33.2629    -1.4965   118.4929 H6            1 RES     
    2793 H6         -31.9173    -2.6392   118.3919 H6            1 RES     
    2794 H6         -31.2092    -0.2934   118.4674 H6            1 RES     
    2795 H6         -32.0490    -0.0255   120.0355 H6            1 RES     
    2796 H6         -29.6652    -1.9621   119.6044 H6            1 RES     
    2797 H6         -30.5270    -1.6478   121.1559 H6            1 RES     
    2798 H6         -29.8455     0.7476   121.0998 H6            1 RES     
    2799 H6         -28.4795    -0.4231   121.1656 H6            1 RES     
    2800 H6         -29.4420     1.0265   118.6161 H6            1 RES     
    2801 H6         -28.0782    -0.1457   118.7077 H6            1 RES     
    2802 H6         -27.3483     2.2306   118.6472 H6            1 RES     
    2803 H6         -28.2787     2.5926   120.1444 H6            1 RES     
    2804 H6         -26.7815     1.0304   121.4340 H6            1 RES     
    2805 H6         -25.8397     2.2932   120.5797 H6            1 RES     
    2806 H6         -25.9022     0.6229   119.9021 H6            1 RES     
    2807 C0         -33.9795   -19.1803   118.6457 C0            1 RES     
    2808 C0         -35.0597   -20.2608   118.7061 C0            1 RES     
    2809 C0         -36.2490   -19.7506   119.1067 C0            1 RES     
    2810 S1         -37.4826   -20.8816   119.1301 S1            1 RES     
    2811 C0         -36.4540   -22.1277   118.5905 C0            1 RES     
    2812 C0         -35.1711   -21.6046   118.3548 C0            1 RES     
    2813 C0         -36.1408   -18.3380   119.2309 C0            1 RES     
    2814 C0         -34.9134   -17.9904   118.9156 C0            1 RES     
    2815 C0         -34.7907   -16.5536   118.7532 C0            1 RES     
    2816 C0         -36.0037   -15.9297   119.0024 C0            1 RES     
    2817 S1         -37.3444   -17.0444   119.4675 S1            1 RES     
    2818 H2         -34.3959   -22.1810   117.8966 H2            1 RES     
    2819 H2         -33.9352   -16.0403   118.3492 H2            1 RES     
    2820 N3         -36.1315   -25.8557   118.1576 N3            1 RES     
    2821 C0         -35.8313   -24.5394   118.3486 C0            1 RES     
    2822 C0         -36.8332   -23.5482   118.3644 C0            1 RES     
    2823 C0         -38.1578   -23.9811   118.1865 C0            1 RES     
    2824 N3         -39.2409   -23.1590   118.1717 N3            1 RES     
    2825 S1         -40.4861   -24.2125   117.8988 S1            1 RES     
    2826 N3         -39.7451   -25.6850   117.7954 N3            1 RES     
    2827 C0         -38.4401   -25.3578   117.9790 C0            1 RES     
    2828 C0         -37.4085   -26.2875   117.9693 C0            1 RES     
    2829 H4         -34.8047   -24.2690   118.5222 H4            1 RES     
    2830 C5         -33.6922   -27.6534   113.5910 C5            1 RES     
    2831 C5         -34.1375   -26.1922   113.6672 C5            1 RES     
    2832 C5         -33.9839   -25.5703   115.0666 C5            1 RES     
    2833 C5         -32.5312   -25.5248   115.5801 C5            1 RES     
    2834 C5         -32.4694   -24.8411   116.9570 C5            1 RES     
    2835 C5         -31.0875   -24.9562   117.6160 C5            1 RES     
    2836 C5         -31.0551   -24.3400   119.0350 C5            1 RES     
    2837 C5         -30.9194   -22.7861   119.0802 C5            1 RES     
    2838 C5         -32.0907   -22.0003   119.7462 C5            1 RES     
    2839 C5         -32.3108   -22.4116   121.2313 C5            1 RES     
    2840 C5         -33.7474   -22.1350   121.7126 C5            1 RES     
    2841 C5         -34.1041   -22.9893   122.9480 C5            1 RES     
    2842 C5         -35.6130   -22.9257   123.2461 C5            1 RES     
    2843 C5         -36.0772   -23.9793   124.2678 C5            1 RES     
    2844 C5         -35.4999   -23.7788   125.6646 C5            1 RES     
    2845 C5         -31.8176   -20.4758   119.5324 C5            1 RES     
    2846 C0         -32.8334   -19.2883   119.7470 C0            1 RES     
    2847 C5         -31.9295   -17.9806   119.7891 C5            1 RES     
    2848 C5         -31.6810   -17.4028   121.2225 C5            1 RES     
    2849 C5         -32.8106   -16.4395   121.7157 C5            1 RES     
    2850 C5         -32.8194   -15.0346   121.0683 C5            1 RES     
    2851 C5         -34.0437   -14.1756   121.4333 C5            1 RES     
    2852 C5         -34.0814   -13.6583   122.8839 C5            1 RES     
    2853 C5         -32.9228   -12.7144   123.2722 C5            1 RES     
    2854 C5         -32.8515   -11.4480   122.4126 C5            1 RES     
    2855 C5         -30.2465   -16.8094   121.4207 C5            1 RES     
    2856 C5         -29.6876   -15.8877   120.3060 C5            1 RES     
    2857 C5         -28.3657   -15.1899   120.6987 C5            1 RES     
    2858 C5         -27.2153   -16.1585   121.0328 C5            1 RES     
    2859 C5         -25.9033   -15.4420   121.4115 C5            1 RES     
    2860 C5         -25.2668   -14.6696   120.2397 C5            1 RES     
    2861 C5         -23.9581   -13.9529   120.6183 C5            1 RES     
    2862 C5         -22.8326   -14.9030   121.0304 C5            1 RES     
    2863 H6         -32.6049   -27.7491   113.7862 H6            1 RES     
    2864 H6         -33.8891   -28.0448   112.5701 H6            1 RES     
    2865 H6         -34.2566   -28.2712   114.3213 H6            1 RES     
    2866 H6         -33.5680   -25.5946   112.9240 H6            1 RES     
    2867 H6         -35.2148   -26.1503   113.3922 H6            1 RES     
    2868 H6         -34.3835   -24.5340   115.0216 H6            1 RES     
    2869 H6         -34.6081   -26.1493   115.7826 H6            1 RES     
    2870 H6         -31.8848   -24.9734   114.8629 H6            1 RES     
    2871 H6         -32.1551   -26.5646   115.6802 H6            1 RES     
    2872 H6         -32.7734   -23.7769   116.8602 H6            1 RES     
    2873 H6         -33.1764   -25.3761   117.6209 H6            1 RES     
    2874 H6         -30.8816   -26.0445   117.7215 H6            1 RES     
    2875 H6         -30.2857   -24.5186   116.9832 H6            1 RES     
    2876 H6         -31.9250   -24.7307   119.6005 H6            1 RES     
    2877 H6         -30.1487   -24.7403   119.5369 H6            1 RES     
    2878 H6         -30.8136   -22.4354   118.0290 H6            1 RES     
    2879 H6         -29.9662   -22.5187   119.5858 H6            1 RES     
    2880 H6         -32.9340   -22.3440   119.1900 H6            1 RES     
    2881 H6         -32.2017   -23.5082   121.2885 H6            1 RES     
    2882 H6         -31.5387   -21.9951   121.9138 H6            1 RES     
    2883 H6         -33.9172   -21.0512   121.8851 H6            1 RES     
    2884 H6         -34.4329   -22.4756   120.9085 H6            1 RES     
    2885 H6         -33.4992   -22.6822   123.8279 H6            1 RES     
    2886 H6         -33.8686   -24.0508   122.7110 H6            1 RES     
    2887 H6         -35.8993   -21.9037   123.5729 H6            1 RES     
    2888 H6         -36.1620   -23.1551   122.3052 H6            1 RES     
    2889 H6         -35.8095   -24.9959   123.9022 H6            1 RES     
    2890 H6         -37.1852   -23.9273   124.3416 H6            1 RES     
    2891 H6         -35.7903   -22.7824   126.0581 H6            1 RES     
    2892 H6         -34.3948   -23.8712   125.6559 H6            1 RES     
    2893 H6         -35.9075   -24.5607   126.3410 H6            1 RES     
    2894 H6         -31.4750   -20.3383   118.4826 H6            1 RES     
    2895 H6         -30.9364   -20.2867   120.1892 H6            1 RES     
    2896 H6         -30.9420   -18.2360   119.3505 H6            1 RES     
    2897 H6         -32.2475   -17.1844   119.1019 H6            1 RES     
    2898 H6         -31.7108   -18.2704   121.9212 H6            1 RES     
    2899 H6         -33.7872   -16.9413   121.5426 H6            1 RES     
    2900 H6         -32.6995   -16.2940   122.8116 H6            1 RES     
    2901 H6         -31.9123   -14.4679   121.3409 H6            1 RES     
    2902 H6         -32.8217   -15.1504   119.9746 H6            1 RES     
    2903 H6         -34.0739   -13.2993   120.7523 H6            1 RES     
    2904 H6         -34.9644   -14.7611   121.2364 H6            1 RES     
    2905 H6         -34.0964   -14.5194   123.5837 H6            1 RES     
    2906 H6         -35.0344   -13.1007   123.0194 H6            1 RES     
    2907 H6         -31.9503   -13.2455   123.2237 H6            1 RES     
    2908 H6         -33.0790   -12.4011   124.3271 H6            1 RES     
    2909 H6         -33.8099   -10.8887   122.4629 H6            1 RES     
    2910 H6         -32.0391   -10.7903   122.7878 H6            1 RES     
    2911 H6         -32.6221   -11.6916   121.3550 H6            1 RES     
    2912 H6         -29.5450   -17.6684   121.4801 H6            1 RES     
    2913 H6         -30.2197   -16.2937   122.4055 H6            1 RES     
    2914 H6         -30.3870   -15.0807   120.0449 H6            1 RES     
    2915 H6         -29.5252   -16.4739   119.3794 H6            1 RES     
    2916 H6         -28.0755   -14.5511   119.8393 H6            1 RES     
    2917 H6         -28.5502   -14.5290   121.5742 H6            1 RES     
    2918 H6         -27.0297   -16.8431   120.1772 H6            1 RES     
    2919 H6         -27.5117   -16.7675   121.9123 H6            1 RES     
    2920 H6         -26.0888   -14.7535   122.2651 H6            1 RES     
    2921 H6         -25.1939   -16.2269   121.7462 H6            1 RES     
    2922 H6         -25.9681   -13.8853   119.8901 H6            1 RES     
    2923 H6         -25.0721   -15.3669   119.3957 H6            1 RES     
    2924 H6         -23.6111   -13.3827   119.7291 H6            1 RES     
    2925 H6         -24.1489   -13.2282   121.4393 H6            1 RES     
    2926 H6         -23.0899   -15.4544   121.9570 H6            1 RES     
    2927 H6         -21.9121   -14.3151   121.2318 H6            1 RES     
    2928 H6         -22.6197   -15.6258   120.2148 H6            1 RES     
    2929 C0         -36.9034   -31.0859   116.2209 C0            1 RES     
    2930 C0         -38.2612   -31.7874   116.2690 C0            1 RES     
    2931 C0         -39.1450   -31.1039   117.0350 C0            1 RES     
    2932 S1         -40.6679   -31.7975   117.0709 S1            1 RES     
    2933 C0         -40.1976   -33.0677   116.0377 C0            1 RES     
    2934 C0         -38.8603   -32.8814   115.6479 C0            1 RES     
    2935 C0         -38.5578   -29.8796   117.4580 C0            1 RES     
    2936 C0         -37.3418   -29.8148   116.9644 C0            1 RES     
    2937 C0         -36.7732   -28.4886   117.1187 C0            1 RES     
    2938 C0         -37.6627   -27.6502   117.7734 C0            1 RES     
    2939 S1         -39.2181   -28.4281   118.2550 S1            1 RES     
    2940 H2         -38.3927   -33.4921   114.9053 H2            1 RES     
    2941 H2         -35.8614   -28.1419   116.6637 H2            1 RES     
    2942 N3         -41.1948   -36.4389   114.6849 N3            1 RES     
    2943 C0         -40.4511   -35.3762   115.1054 C0            1 RES     
    2944 C0         -41.0545   -34.1932   115.5775 C0            1 RES     
    2945 C0         -42.4587   -34.1643   115.6065 C0            1 RES     
    2946 N3         -43.1983   -33.1041   116.0284 N3            1 RES     
    2947 S1         -44.7478   -33.6369   115.8048 S1            1 RES     
    2948 N3         -44.5598   -35.1608   115.1962 N3            1 RES     
    2949 C0         -43.2081   -35.2824   115.1523 C0            1 RES     
    2950 C0         -42.5558   -36.4194   114.6936 C0            1 RES     
    2951 H4         -39.3794   -35.4686   115.1015 H4            1 RES     
    2952 C5         -40.1562   -37.4315   109.3960 C5            1 RES     
    2953 C5         -40.0760   -35.9931   109.9097 C5            1 RES     
    2954 C5         -39.5301   -35.8775   111.3440 C5            1 RES     
    2955 C5         -38.0878   -36.3946   111.5131 C5            1 RES     
    2956 C5         -37.6102   -36.1901   112.9613 C5            1 RES     
    2957 C5         -36.2670   -36.8766   113.2465 C5            1 RES     
    2958 C5         -35.8333   -36.7378   114.7252 C5            1 RES     
    2959 C5         -35.1846   -35.3691   115.1004 C5            1 RES     
    2960 C5         -35.9231   -34.5164   116.1778 C5            1 RES     
    2961 C5         -36.0567   -35.2650   117.5360 C5            1 RES     
    2962 C5         -37.2375   -34.7491   118.3794 C5            1 RES     
    2963 C5         -37.6805   -35.7911   119.4288 C5            1 RES     
    2964 C5         -39.0252   -35.3959   120.0655 C5            1 RES     
    2965 C5         -39.6646   -36.5273   120.8905 C5            1 RES     
    2966 C5         -38.8637   -36.9151   122.1285 C5            1 RES     
    2967 C5         -35.1922   -33.1373   116.2700 C5            1 RES     
    2968 C0         -35.7156   -31.8292   116.9791 C0            1 RES     
    2969 C5         -34.4326   -30.9005   117.1207 C5            1 RES     
    2970 C5         -33.8080   -30.8618   118.5556 C5            1 RES     
    2971 C5         -34.4728   -29.8080   119.5016 C5            1 RES     
    2972 C5         -34.1055   -28.3322   119.2193 C5            1 RES     
    2973 C5         -34.9113   -27.3096   120.0409 C5            1 RES     
    2974 C5         -34.5714   -27.2507   121.5424 C5            1 RES     
    2975 C5         -33.1229   -26.8274   121.8691 C5            1 RES     
    2976 C5         -32.7566   -25.4385   121.3357 C5            1 RES     
    2977 C5         -32.2451   -30.7807   118.5585 C5            1 RES     
    2978 C5         -31.5741   -29.7693   117.5935 C5            1 RES     
    2979 C5         -30.0543   -29.6183   117.8301 C5            1 RES     
    2980 C5         -29.2558   -30.9248   117.6608 C5            1 RES     
    2981 C5         -27.7410   -30.7496   117.8908 C5            1 RES     
    2982 C5         -27.0552   -29.8798   116.8194 C5            1 RES     
    2983 C5         -25.5435   -29.7036   117.0502 C5            1 RES     
    2984 C5         -24.7511   -31.0089   116.9645 C5            1 RES     
    2985 H6         -39.1463   -37.8818   109.3134 H6            1 RES     
    2986 H6         -40.6129   -37.4352   108.3833 H6            1 RES     
    2987 H6         -40.7854   -38.0512   110.0696 H6            1 RES     
    2988 H6         -39.4506   -35.3896   109.2180 H6            1 RES     
    2989 H6         -41.1056   -35.5714   109.9021 H6            1 RES     
    2990 H6         -39.5652   -34.8048   111.6335 H6            1 RES     
    2991 H6         -40.2041   -36.4406   112.0267 H6            1 RES     
    2992 H6         -37.4024   -35.8626   110.8179 H6            1 RES     
    2993 H6         -38.0680   -37.4800   111.2802 H6            1 RES     
    2994 H6         -37.5542   -35.1036   113.1867 H6            1 RES     
    2995 H6         -38.3542   -36.6745   113.6235 H6            1 RES     
    2996 H6         -36.4213   -37.9601   113.0457 H6            1 RES     
    2997 H6         -35.4625   -36.5170   112.5694 H6            1 RES     
    2998 H6         -36.6951   -37.0158   115.3649 H6            1 RES     
    2999 H6         -35.0502   -37.5054   114.9024 H6            1 RES     
    3000 H6         -35.1169   -34.7707   114.1641 H6            1 RES     
    3001 H6         -34.1358   -35.5407   115.4264 H6            1 RES     
    3002 H6         -36.9017   -34.4306   115.7614 H6            1 RES     
    3003 H6         -36.3108   -36.3147   117.3094 H6            1 RES     
    3004 H6         -35.1025   -35.3012   118.1049 H6            1 RES     
    3005 H6         -37.0119   -33.7613   118.8340 H6            1 RES     
    3006 H6         -38.1027   -34.6323   117.6937 H6            1 RES     
    3007 H6         -36.8910   -35.9380   120.1966 H6            1 RES     
    3008 H6         -37.8464   -36.7581   118.9037 H6            1 RES     
    3009 H6         -38.9072   -34.4769   120.6779 H6            1 RES     
    3010 H6         -39.7454   -35.1759   119.2457 H6            1 RES     
    3011 H6         -39.8036   -37.4247   120.2469 H6            1 RES     
    3012 H6         -40.6706   -36.1898   121.2221 H6            1 RES     
    3013 H6         -38.7487   -36.0379   122.7988 H6            1 RES     
    3014 H6         -37.8648   -37.3078   121.8497 H6            1 RES     
    3015 H6         -39.4086   -37.7131   122.6774 H6            1 RES     
    3016 H6         -34.9742   -32.8008   115.2320 H6            1 RES     
    3017 H6         -34.2155   -33.4045   116.7369 H6            1 RES     
    3018 H6         -33.6576   -31.2832   116.4238 H6            1 RES     
    3019 H6         -34.5613   -29.8823   116.7284 H6            1 RES     
    3020 H6         -34.0257   -31.8508   119.0206 H6            1 RES     
    3021 H6         -35.5746   -29.9414   119.4406 H6            1 RES     
    3022 H6         -34.1672   -30.0270   120.5471 H6            1 RES     
    3023 H6         -33.0330   -28.1490   119.4052 H6            1 RES     
    3024 H6         -34.2995   -28.1172   118.1582 H6            1 RES     
    3025 H6         -34.7441   -26.3009   119.6083 H6            1 RES     
    3026 H6         -35.9921   -27.5282   119.9254 H6            1 RES     
    3027 H6         -34.7730   -28.2382   122.0066 H6            1 RES     
    3028 H6         -35.2563   -26.5127   122.0154 H6            1 RES     
    3029 H6         -32.3987   -27.5721   121.4801 H6            1 RES     
    3030 H6         -33.0167   -26.8059   122.9753 H6            1 RES     
    3031 H6         -33.4579   -24.6725   121.7298 H6            1 RES     
    3032 H6         -31.7278   -25.1757   121.6612 H6            1 RES     
    3033 H6         -32.7718   -25.4162   120.2268 H6            1 RES     
    3034 H6         -31.8675   -31.7805   118.2560 H6            1 RES     
    3035 H6         -31.9108   -30.6052   119.6044 H6            1 RES     
    3036 H6         -31.9953   -28.7587   117.6926 H6            1 RES     
    3037 H6         -31.7471   -30.0796   116.5436 H6            1 RES     
    3038 H6         -29.6921   -28.8646   117.1010 H6            1 RES     
    3039 H6         -29.8843   -29.2185   118.8542 H6            1 RES     
    3040 H6         -29.4298   -31.3523   116.6497 H6            1 RES     
    3041 H6         -29.6111   -31.6554   118.4172 H6            1 RES     
    3042 H6         -27.5659   -30.3180   118.9009 H6            1 RES     
    3043 H6         -27.2928   -31.7644   117.8643 H6            1 RES     
    3044 H6         -27.4981   -28.8635   116.8299 H6            1 RES     
    3045 H6         -27.2234   -30.3248   115.8144 H6            1 RES     
    3046 H6         -25.1551   -29.0198   116.2640 H6            1 RES     
    3047 H6         -25.3658   -29.2279   118.0389 H6            1 RES     
    3048 H6         -25.0442   -31.7117   117.7702 H6            1 RES     
    3049 H6         -23.6690   -30.7895   117.0849 H6            1 RES     
    3050 H6         -24.9067   -31.4908   115.9762 H6            1 RES     
    3051 C0         -43.9222   -40.4353   111.8053 C0            1 RES     
    3052 C0         -45.4149   -40.7086   111.9928 C0            1 RES     
    3053 C0         -45.9051   -40.0596   113.0762 C0            1 RES     
    3054 S1         -47.5509   -40.2758   113.2911 S1            1 RES     
    3055 C0         -47.6786   -41.2666   111.9113 C0            1 RES     
    3056 C0         -46.4240   -41.3583   111.2848 C0            1 RES     
    3057 C0         -44.8917   -39.2295   113.6299 C0            1 RES     
    3058 C0         -43.8050   -39.3678   112.9043 C0            1 RES     
    3059 C0         -42.8129   -38.3608   113.2318 C0            1 RES     
    3060 C0         -43.2726   -37.5360   114.2473 C0            1 RES     
    3061 S1         -44.9142   -37.9506   114.8715 S1            1 RES     
    3062 H2         -46.2946   -41.8306   110.3344 H2            1 RES     
    3063 H2         -41.9110   -38.1671   112.6771 H2            1 RES     
    3064 N3         -49.9175   -43.6714   110.0690 N3            1 RES     
    3065 C0         -48.8120   -43.0323   110.5474 C0            1 RES     
    3066 C0         -48.9161   -41.9196   111.4061 C0            1 RES     
    3067 C0         -50.2123   -41.5068   111.7567 C0            1 RES     
    3068 N3         -50.4912   -40.4533   112.5700 N3            1 RES     
    3069 S1         -52.1448   -40.4391   112.5831 S1            1 RES     
    3070 N3         -52.5606   -41.7066   111.6091 N3            1 RES     
    3071 C0         -51.3462   -42.1851   111.2347 C0            1 RES     
    3072 C0         -51.1793   -43.2734   110.3884 C0            1 RES     
    3073 H4         -47.8435   -43.4170   110.2807 H4            1 RES     
    3074 C5         -50.0196   -43.3229   104.6005 C5            1 RES     
    3075 C5         -49.3954   -42.1812   105.4042 C5            1 RES     
    3076 C5         -48.6466   -42.6487   106.6649 C5            1 RES     
    3077 C5         -47.4492   -43.5764   106.3793 C5            1 RES     
    3078 C5         -46.7327   -43.9475   107.6892 C5            1 RES     
    3079 C5         -45.6675   -45.0362   107.4961 C5            1 RES     
    3080 C5         -45.0096   -45.4640   108.8296 C5            1 RES     
    3081 C5         -43.8975   -44.5053   109.3580 C5            1 RES     
    3082 C5         -44.1524   -43.8336   110.7425 C5            1 RES     
    3083 C5         -44.3351   -44.8777   111.8825 C5            1 RES     
    3084 C5         -45.1471   -44.3209   113.0668 C5            1 RES     
    3085 C5         -45.7591   -45.4557   113.9158 C5            1 RES     
    3086 C5         -46.7930   -44.9028   114.9133 C5            1 RES     
    3087 C5         -47.6493   -45.9984   115.5734 C5            1 RES     
    3088 C5         -46.8573   -46.9403   116.4734 C5            1 RES     
    3089 C5         -43.0000   -42.8057   110.9873 C5            1 RES     
    3090 C0         -42.9547   -41.6705   112.0814 C0            1 RES     
    3091 C5         -41.4297   -41.2239   112.1432 C5            1 RES     
    3092 C5         -40.6330   -41.7840   113.3688 C5            1 RES     
    3093 C5         -40.7708   -40.9108   114.6594 C5            1 RES     
    3094 C5         -39.9779   -39.5826   114.6543 C5            1 RES     
    3095 C5         -40.2751   -38.6619   115.8519 C5            1 RES     
    3096 C5         -39.7278   -39.1430   117.2093 C5            1 RES     
    3097 C5         -38.1904   -39.2592   117.2909 C5            1 RES     
    3098 C5         -37.4625   -37.9367   117.0282 C5            1 RES     
    3099 C5         -39.1478   -42.1503   113.0384 C5            1 RES     
    3100 C5         -38.3214   -41.1322   112.2106 C5            1 RES     
    3101 C5         -36.8204   -41.4908   112.1274 C5            1 RES     
    3102 C5         -36.5329   -42.8598   111.4823 C5            1 RES     
    3103 C5         -35.0295   -43.1930   111.3995 C5            1 RES     
    3104 C5         -34.2513   -42.2774   110.4347 C5            1 RES     
    3105 C5         -32.7502   -42.6089   110.3536 C5            1 RES     
    3106 C5         -32.4564   -43.9997   109.7892 C5            1 RES     
    3107 H6         -49.2386   -43.9943   104.1896 H6            1 RES     
    3108 H6         -50.5889   -42.9015   103.7446 H6            1 RES     
    3109 H6         -50.7178   -43.9095   105.2347 H6            1 RES     
    3110 H6         -48.7087   -41.6031   104.7500 H6            1 RES     
    3111 H6         -50.2169   -41.5040   105.7274 H6            1 RES     
    3112 H6         -48.2828   -41.7432   107.1972 H6            1 RES     
    3113 H6         -49.3666   -43.1737   107.3310 H6            1 RES     
    3114 H6         -46.7306   -43.0794   105.6915 H6            1 RES     
    3115 H6         -47.8236   -44.5058   105.9010 H6            1 RES     
    3116 H6         -46.2882   -43.0363   108.1436 H6            1 RES     
    3117 H6         -47.4947   -44.3749   108.3701 H6            1 RES     
    3118 H6         -46.1993   -45.9243   107.0879 H6            1 RES     
    3119 H6         -44.8927   -44.7356   106.7584 H6            1 RES     
    3120 H6         -45.8161   -45.6629   109.5638 H6            1 RES     
    3121 H6         -44.5090   -46.4376   108.6414 H6            1 RES     
    3122 H6         -43.7671   -43.7034   108.5968 H6            1 RES     
    3123 H6         -42.9305   -45.0524   109.3900 H6            1 RES     
    3124 H6         -45.0952   -43.3581   110.5891 H6            1 RES     
    3125 H6         -44.9523   -45.6992   111.4802 H6            1 RES     
    3126 H6         -43.3772   -45.3455   112.1972 H6            1 RES     
    3127 H6         -44.5451   -43.6146   113.6767 H6            1 RES     
    3128 H6         -46.0116   -43.7702   112.6404 H6            1 RES     
    3129 H6         -44.9637   -46.0367   114.4299 H6            1 RES     
    3130 H6         -46.3084   -46.1392   113.2307 H6            1 RES     
    3131 H6         -46.2921   -44.2753   115.6806 H6            1 RES     
    3132 H6         -47.5067   -44.2593   114.3515 H6            1 RES     
    3133 H6         -48.1670   -46.5912   114.7864 H6            1 RES     
    3134 H6         -48.4293   -45.5041   116.1925 H6            1 RES     
    3135 H6         -46.3650   -46.3671   117.2865 H6            1 RES     
    3136 H6         -46.0949   -47.4986   115.8931 H6            1 RES     
    3137 H6         -47.5535   -47.6770   116.9291 H6            1 RES     
    3138 H6         -42.8305   -42.2557   110.0349 H6            1 RES     
    3139 H6         -42.1120   -43.4611   111.1464 H6            1 RES     
    3140 H6         -40.9315   -41.5877   111.2200 H6            1 RES     
    3141 H6         -41.2668   -40.1423   112.0389 H6            1 RES     
    3142 H6         -41.0992   -42.7628   113.6267 H6            1 RES     
    3143 H6         -41.8515   -40.7050   114.8188 H6            1 RES     
    3144 H6         -40.4119   -41.5029   115.5283 H6            1 RES     
    3145 H6         -38.8906   -39.7712   114.6314 H6            1 RES     
    3146 H6         -40.2363   -39.0211   113.7446 H6            1 RES     
    3147 H6         -39.8449   -37.6605   115.6406 H6            1 RES     
    3148 H6         -41.3720   -38.5240   115.9350 H6            1 RES     
    3149 H6         -40.1787   -40.1247   117.4631 H6            1 RES     
    3150 H6         -40.0555   -38.4144   117.9834 H6            1 RES     
    3151 H6         -37.8166   -40.0296   116.5859 H6            1 RES     
    3152 H6         -37.9291   -39.5930   118.3183 H6            1 RES     
    3153 H6         -37.8072   -37.1547   117.7379 H6            1 RES     
    3154 H6         -36.3699   -38.0810   117.1658 H6            1 RES     
    3155 H6         -37.6247   -37.5875   115.9880 H6            1 RES     
    3156 H6         -39.1698   -43.0817   112.4337 H6            1 RES     
    3157 H6         -38.6311   -42.3899   113.9934 H6            1 RES     
    3158 H6         -38.3651   -40.1191   112.6353 H6            1 RES     
    3159 H6         -38.7330   -41.0599   111.1841 H6            1 RES     
    3160 H6         -36.3346   -40.6904   111.5322 H6            1 RES     
    3161 H6         -36.3856   -41.4729   113.1511 H6            1 RES     
    3162 H6         -36.9789   -42.9057   110.4652 H6            1 RES     
    3163 H6         -37.0008   -43.6489   112.1071 H6            1 RES     
    3164 H6         -34.5813   -43.1434   112.4162 H6            1 RES     
    3165 H6         -34.9519   -44.2387   111.0364 H6            1 RES     
    3166 H6         -34.3257   -41.2270   110.7817 H6            1 RES     
    3167 H6         -34.6968   -42.3427   109.4180 H6            1 RES     
    3168 H6         -32.2713   -41.8631   109.6822 H6            1 RES     
    3169 H6         -32.2880   -42.5134   111.3599 H6            1 RES     
    3170 H6         -32.8500   -44.7953   110.4531 H6            1 RES     
    3171 H6         -31.3572   -44.1386   109.7106 H6            1 RES     
    3172 H6         -32.9000   -44.1071   108.7769 H6            1 RES     
    3173 C0         -54.1919   -45.7143   107.0263 C0            1 RES     
    3174 C0         -55.6487   -45.5992   107.4760 C0            1 RES     
    3175 C0         -55.7387   -45.1852   108.7628 C0            1 RES     
    3176 S1         -57.3156   -44.9830   109.2863 S1            1 RES     
    3177 C0         -57.9570   -45.4488   107.7785 C0            1 RES     
    3178 C0         -56.9049   -45.7021   106.8819 C0            1 RES     
    3179 C0         -54.4402   -44.8736   109.2521 C0            1 RES     
    3180 C0         -53.5741   -45.0932   108.2886 C0            1 RES     
    3181 C0         -52.2685   -44.5477   108.6102 C0            1 RES     
    3182 C0         -52.2812   -43.9618   109.8669 C0            1 RES     
    3183 S1         -53.8626   -44.0617   110.7303 S1            1 RES     
    3184 H2         -57.0742   -45.8920   105.8435 H2            1 RES     
    3185 H2         -51.4407   -44.4620   107.9275 H2            1 RES     
    3186 N3         -61.1019   -46.4780   105.9786 N3            1 RES     
    3187 C0         -59.7916   -46.3447   106.3313 C0            1 RES     
    3188 C0         -59.3989   -45.5498   107.4270 C0            1 RES     
    3189 C0         -60.4219   -44.9107   108.1469 C0            1 RES     
    3190 N3         -60.2184   -44.1074   109.2251 N3            1 RES     
    3191 S1         -61.7544   -43.6332   109.6133 S1            1 RES     
    3192 N3         -62.6995   -44.3898   108.4897 N3            1 RES     
    3193 C0         -61.7779   -45.0589   107.7502 C0            1 RES     
    3194 C0         -62.1021   -45.8529   106.6579 C0            1 RES     
    3195 H4         -59.0531   -46.8906   105.7710 H4            1 RES     
    3196 C5         -61.8483   -44.5305   100.9104 C5            1 RES     
    3197 C5         -60.7743   -43.8978   101.7966 C5            1 RES     
    3198 C5         -60.0543   -44.9046   102.7113 C5            1 RES     
    3199 C5         -59.2852   -46.0055   101.9547 C5            1 RES     
    3200 C5         -58.5564   -46.9295   102.9457 C5            1 RES     
    3201 C5         -57.9512   -48.1675   102.2688 C5            1 RES     
    3202 C5         -57.2924   -49.1337   103.2820 C5            1 RES     
    3203 C5         -55.8628   -48.7248   103.7552 C5            1 RES     
    3204 C5         -55.6835   -48.4444   105.2791 C5            1 RES     
    3205 C5         -56.0406   -49.6809   106.1547 C5            1 RES     
    3206 C5         -56.4472   -49.2903   107.5879 C5            1 RES     
    3207 C5         -57.2757   -50.4038   108.2638 C5            1 RES     
    3208 C5         -57.9168   -49.8996   109.5694 C5            1 RES     
    3209 C5         -58.9867   -50.8533   110.1308 C5            1 RES     
    3210 C5         -58.4343   -52.2002   110.5837 C5            1 RES     
    3211 C5         -54.2330   -47.9007   105.4911 C5            1 RES     
    3212 C0         -53.6605   -47.1960   106.7809 C0            1 RES     
    3213 C5         -52.0811   -47.2348   106.6002 C5            1 RES     
    3214 C5         -51.3520   -48.3294   107.4492 C5            1 RES     
    3215 C5         -51.0097   -47.8702   108.9049 C5            1 RES     
    3216 C5         -49.8300   -46.8778   109.0317 C5            1 RES     
    3217 C5         -49.6337   -46.3033   110.4464 C5            1 RES     
    3218 C5         -49.0926   -47.2940   111.4948 C5            1 RES     
    3219 C5         -47.6855   -47.8564   111.1985 C5            1 RES     
    3220 C5         -46.6043   -46.7755   111.0949 C5            1 RES     
    3221 C5         -50.1344   -48.9851   106.7165 C5            1 RES     
    3222 C5         -49.1417   -48.0447   105.9852 C5            1 RES     
    3223 C5         -47.8722   -48.7702   105.4846 C5            1 RES     
    3224 C5         -48.1488   -49.9135   104.4898 C5            1 RES     
    3225 C5         -46.8686   -50.6165   103.9951 C5            1 RES     
    3226 C5         -45.9739   -49.7162   103.1210 C5            1 RES     
    3227 C5         -44.6951   -50.4175   102.6287 C5            1 RES     
    3228 C5         -44.9618   -51.6061   101.7039 C5            1 RES     
    3229 H6         -61.4002   -45.2435   100.1890 H6            1 RES     
    3230 H6         -62.3594   -43.7349   100.3275 H6            1 RES     
    3231 H6         -62.6053   -45.0559   101.5305 H6            1 RES     
    3232 H6         -60.0336   -43.3711   101.1582 H6            1 RES     
    3233 H6         -61.2706   -43.1425   102.4456 H6            1 RES     
    3234 H6         -59.3397   -44.3350   103.3443 H6            1 RES     
    3235 H6         -60.8067   -45.3768   103.3809 H6            1 RES     
    3236 H6         -58.5464   -45.5521   101.2583 H6            1 RES     
    3237 H6         -60.0100   -46.6097   101.3696 H6            1 RES     
    3238 H6         -57.7756   -46.3547   103.4882 H6            1 RES     
    3239 H6         -59.3136   -47.3051   103.6616 H6            1 RES     
    3240 H6         -58.7992   -48.7102   101.7950 H6            1 RES     
    3241 H6         -57.2320   -47.8948   101.4667 H6            1 RES     
    3242 H6         -58.0079   -49.3036   104.1117 H6            1 RES     
    3243 H6         -57.1750   -50.1092   102.7639 H6            1 RES     
    3244 H6         -55.5817   -47.8059   103.1932 H6            1 RES     
    3245 H6         -55.1377   -49.5062   103.4398 H6            1 RES     
    3246 H6         -56.4267   -47.6999   105.4575 H6            1 RES     
    3247 H6         -56.9454   -50.1405   105.7214 H6            1 RES     
    3248 H6         -55.2582   -50.4699   106.1273 H6            1 RES     
    3249 H6         -55.5657   -48.9924   108.1941 H6            1 RES     
    3250 H6         -57.1306   -48.4191   107.5079 H6            1 RES     
    3251 H6         -56.6545   -51.3089   108.4352 H6            1 RES     
    3252 H6         -58.1110   -50.6735   107.5798 H6            1 RES     
    3253 H6         -57.1337   -49.6915   110.3288 H6            1 RES     
    3254 H6         -58.4478   -48.9463   109.3490 H6            1 RES     
    3255 H6         -59.7767   -51.0192   109.3645 H6            1 RES     
    3256 H6         -59.4634   -50.3634   111.0075 H6            1 RES     
    3257 H6         -57.6708   -52.0528   111.3757 H6            1 RES     
    3258 H6         -57.9897   -52.7550   109.7326 H6            1 RES     
    3259 H6         -59.2644   -52.8111   110.9995 H6            1 RES     
    3260 H6         -54.0259   -47.1669   104.6805 H6            1 RES     
    3261 H6         -53.5999   -48.7959   105.2885 H6            1 RES     
    3262 H6         -51.8665   -47.4372   105.5298 H6            1 RES     
    3263 H6         -51.5848   -46.2616   106.7174 H6            1 RES     
    3264 H6         -52.0755   -49.1683   107.5695 H6            1 RES     
    3265 H6         -51.9272   -47.4250   109.3472 H6            1 RES     
    3266 H6         -50.7496   -48.7666   109.5077 H6            1 RES     
    3267 H6         -48.8815   -47.3492   108.7210 H6            1 RES     
    3268 H6         -50.0122   -46.0258   108.3606 H6            1 RES     
    3269 H6         -48.9297   -45.4471   110.3836 H6            1 RES     
    3270 H6         -50.5995   -45.8930   110.8044 H6            1 RES     
    3271 H6         -49.8034   -48.1388   111.6072 H6            1 RES     
    3272 H6         -49.0479   -46.7625   112.4710 H6            1 RES     
    3273 H6         -47.6913   -48.4593   110.2675 H6            1 RES     
    3274 H6         -47.4085   -48.5356   112.0335 H6            1 RES     
    3275 H6         -46.5669   -46.1715   112.0265 H6            1 RES     
    3276 H6         -45.6138   -47.2548   110.9452 H6            1 RES     
    3277 H6         -46.7857   -46.1063   110.2291 H6            1 RES     
    3278 H6         -50.5488   -49.6532   105.9320 H6            1 RES     
    3279 H6         -49.5980   -49.6289   107.4475 H6            1 RES     
    3280 H6         -48.7866   -47.2309   106.6333 H6            1 RES     
    3281 H6         -49.6456   -47.5625   105.1238 H6            1 RES     
    3282 H6         -47.2368   -48.0011   104.9991 H6            1 RES     
    3283 H6         -47.3171   -49.1757   106.3591 H6            1 RES     
    3284 H6         -48.7227   -49.5324   103.6176 H6            1 RES     
    3285 H6         -48.7596   -50.6860   105.0020 H6            1 RES     
    3286 H6         -46.2914   -50.9947   104.8674 H6            1 RES     
    3287 H6         -47.1942   -51.4878   103.3899 H6            1 RES     
    3288 H6         -45.6461   -48.8368   103.7114 H6            1 RES     
    3289 H6         -46.5538   -49.3531   102.2444 H6            1 RES     
    3290 H6         -44.0949   -49.6741   102.0600 H6            1 RES     
    3291 H6         -44.0911   -50.7548   103.4988 H6            1 RES     
    3292 H6         -45.5000   -52.4169   102.2347 H6            1 RES     
    3293 H6         -43.9936   -52.0192   101.3495 H6            1 RES     
    3294 H6         -45.5532   -51.2833   100.8212 H6            1 RES     
    3295 C0         -66.1939   -46.2528   103.5862 C0            1 RES     
    3296 C0         -67.4516   -45.8696   104.3667 C0            1 RES     
    3297 C0         -67.2177   -45.8424   105.7008 C0            1 RES     
    3298 S1         -68.5482   -45.3673   106.5985 S1            1 RES     
    3299 C0         -69.5126   -45.1715   105.2079 C0            1 RES     
    3300 C0         -68.7409   -45.4364   104.0637 C0            1 RES     
    3301 C0         -65.8344   -46.0659   105.9439 C0            1 RES     
    3302 C0         -65.2345   -46.2282   104.7862 C0            1 RES     
    3303 C0         -63.7904   -46.1909   104.9236 C0            1 RES     
    3304 C0         -63.4316   -46.0196   106.2520 C0            1 RES     
    3305 S1         -64.8189   -45.9189   107.4016 S1            1 RES     
    3306 H2         -69.1075   -45.2585   103.0753 H2            1 RES     
    3307 H2         -63.0855   -46.1455   104.1115 H2            1 RES     
    3308 N3         -73.0402   -44.7011   103.9735 N3            1 RES     
    3309 C0         -71.7242   -45.0510   104.0431 C0            1 RES     
    3310 C0         -70.9405   -44.7554   105.1767 C0            1 RES     
    3311 C0         -71.5817   -44.0944   106.2374 C0            1 RES     
    3312 N3         -70.9741   -43.7329   107.3989 N3            1 RES     
    3313 S1         -72.1951   -42.9813   108.2229 S1            1 RES     
    3314 N3         -73.4853   -43.0782   107.1963 N3            1 RES     
    3315 C0         -72.9514   -43.7325   106.1329 C0            1 RES     
    3316 C0         -73.6705   -44.0473   104.9873 C0            1 RES     
    3317 H4         -71.2950   -45.5936   103.2193 H4            1 RES     
    3318 C5         -73.8007   -41.2282    99.8025 C5            1 RES     
    3319 C5         -72.4646   -41.2113   100.5466 C5            1 RES     
    3320 C5         -71.9988   -42.6015   101.0145 C5            1 RES     
    3321 C5         -71.7529   -43.6026    99.8684 C5            1 RES     
    3322 C5         -71.2407   -44.9420   100.4258 C5            1 RES     
    3323 C5         -71.1819   -46.0455    99.3601 C5            1 RES     
    3324 C5         -70.7461   -47.4104    99.9444 C5            1 RES     
    3325 C5         -69.2104   -47.5771   100.1655 C5            1 RES     
    3326 C5         -68.7364   -47.8172   101.6320 C5            1 RES     
    3327 C5         -69.3571   -49.1031   102.2519 C5            1 RES     
    3328 C5         -69.4059   -49.0512   103.7904 C5            1 RES     
    3329 C5         -70.4535   -50.0337   104.3563 C5            1 RES     
    3330 C5         -70.7011   -49.7746   105.8534 C5            1 RES     
    3331 C5         -71.9370   -50.5097   106.4027 C5            1 RES     
    3332 C5         -71.8053   -52.0286   106.3921 C5            1 RES     
    3333 C5         -67.1731   -47.7902   101.6328 C5            1 RES     
    3334 C0         -66.2244   -47.6846   102.8885 C0            1 RES     
    3335 C5         -64.7893   -48.1113   102.3526 C5            1 RES     
    3336 C5         -64.3534   -49.5651   102.7358 C5            1 RES     
    3337 C5         -63.6776   -49.6677   104.1429 C5            1 RES     
    3338 C5         -62.2300   -49.1296   104.2289 C5            1 RES     
    3339 C5         -61.6578   -49.0736   105.6570 C5            1 RES     
    3340 C5         -61.3349   -50.4381   106.2954 C5            1 RES     
    3341 C5         -60.2505   -51.2610   105.5668 C5            1 RES     
    3342 C5         -58.8977   -50.5469   105.4777 C5            1 RES     
    3343 C5         -63.5379   -50.2924   101.6153 C5            1 RES     
    3344 C5         -62.4023   -49.4981   100.9196 C5            1 RES     
    3345 C5         -61.5290   -50.3716    99.9907 C5            1 RES     
    3346 C5         -62.3060   -51.0476    98.8451 C5            1 RES     
    3347 C5         -61.4145   -51.9053    97.9245 C5            1 RES     
    3348 C5         -60.4037   -51.0783    97.1065 C5            1 RES     
    3349 C5         -59.5126   -51.9348    96.1890 C5            1 RES     
    3350 C5         -60.2854   -52.6755    95.0966 C5            1 RES     
    3351 H6         -73.7204   -41.7948    98.8527 H6            1 RES     
    3352 H6         -74.0951   -40.1867    99.5521 H6            1 RES     
    3353 H6         -74.5943   -41.6769   100.4369 H6            1 RES     
    3354 H6         -71.6883   -40.7513    99.8989 H6            1 RES     
    3355 H6         -72.5859   -40.5713   101.4487 H6            1 RES     
    3356 H6         -71.0544   -42.4672   101.5853 H6            1 RES     
    3357 H6         -72.7635   -43.0175   101.7071 H6            1 RES     
    3358 H6         -71.0109   -43.1922    99.1492 H6            1 RES     
    3359 H6         -72.7116   -43.7797    99.3371 H6            1 RES     
    3360 H6         -70.2455   -44.7949   100.8974 H6            1 RES     
    3361 H6         -71.9713   -45.2818   101.1858 H6            1 RES     
    3362 H6         -72.2196   -46.1644    98.9763 H6            1 RES     
    3363 H6         -70.5330   -45.7639    98.5031 H6            1 RES     
    3364 H6         -71.3535   -47.6072   100.8508 H6            1 RES     
    3365 H6         -71.0329   -48.1833    99.2000 H6            1 RES     
    3366 H6         -68.7220   -46.6518    99.7851 H6            1 RES     
    3367 H6         -68.8376   -48.4028    99.5213 H6            1 RES     
    3368 H6         -69.1576   -46.9800   102.1420 H6            1 RES     
    3369 H6         -70.4145   -49.1419   101.9385 H6            1 RES     
    3370 H6         -68.8930   -50.0362   101.8655 H6            1 RES     
    3371 H6         -68.3997   -49.2042   104.2348 H6            1 RES     
    3372 H6         -69.7655   -48.0394   104.0721 H6            1 RES     
    3373 H6         -70.1504   -51.0857   104.1671 H6            1 RES     
    3374 H6         -71.4182   -49.8452   103.8344 H6            1 RES     
    3375 H6         -69.7951   -50.0269   106.4439 H6            1 RES     
    3376 H6         -70.9110   -48.6896   105.9872 H6            1 RES     
    3377 H6         -72.8364   -50.2150   105.8171 H6            1 RES     
    3378 H6         -72.0962   -50.1845   107.4538 H6            1 RES     
    3379 H6         -70.9331   -52.3403   107.0036 H6            1 RES     
    3380 H6         -71.6940   -52.4116   105.3573 H6            1 RES     
    3381 H6         -72.7241   -52.4752   106.8297 H6            1 RES     
    3382 H6         -66.8500   -46.9406   100.9908 H6            1 RES     
    3383 H6         -66.9081   -48.7272   101.0895 H6            1 RES     
    3384 H6         -64.8063   -48.0434   101.2445 H6            1 RES     
    3385 H6         -63.9869   -47.3956   102.5790 H6            1 RES     
    3386 H6         -65.2899   -50.1636   102.8167 H6            1 RES     
    3387 H6         -64.3237   -49.1322   104.8719 H6            1 RES     
    3388 H6         -63.6479   -50.7365   104.4451 H6            1 RES     
    3389 H6         -61.5452   -49.7362   103.6113 H6            1 RES     
    3390 H6         -62.2113   -48.1032   103.8341 H6            1 RES     
    3391 H6         -60.7257   -48.4707   105.6389 H6            1 RES     
    3392 H6         -62.3724   -48.5319   106.3089 H6            1 RES     
    3393 H6         -62.2625   -51.0431   106.3645 H6            1 RES     
    3394 H6         -60.9799   -50.2505   107.3328 H6            1 RES     
    3395 H6         -60.5865   -51.5380   104.5467 H6            1 RES     
    3396 H6         -60.1004   -52.2040   106.1355 H6            1 RES     
    3397 H6         -58.5318   -50.2779   106.4915 H6            1 RES     
    3398 H6         -58.1538   -51.2196   105.0010 H6            1 RES     
    3399 H6         -58.9662   -49.6309   104.8558 H6            1 RES     
    3400 H6         -64.2562   -50.5569   100.8106 H6            1 RES     
    3401 H6         -63.1488   -51.2455   102.0356 H6            1 RES     
    3402 H6         -61.7101   -49.0437   101.6427 H6            1 RES     
    3403 H6         -62.8331   -48.6636   100.3309 H6            1 RES     
    3404 H6         -60.7491   -49.7053    99.5679 H6            1 RES     
    3405 H6         -61.0232   -51.1542   100.5982 H6            1 RES     
    3406 H6         -62.8372   -50.2827    98.2383 H6            1 RES     
    3407 H6         -63.0604   -51.7318    99.2867 H6            1 RES     
    3408 H6         -60.8793   -52.6686    98.5313 H6            1 RES     
    3409 H6         -62.0923   -52.4330    97.2219 H6            1 RES     
    3410 H6         -59.7232   -50.5395    97.7964 H6            1 RES     
    3411 H6         -60.9469   -50.3269    96.4927 H6            1 RES     
    3412 H6         -58.7857   -51.2577    95.6894 H6            1 RES     
    3413 H6         -58.9391   -52.6675    96.7971 H6            1 RES     
    3414 H6         -60.9821   -53.4205    95.5306 H6            1 RES     
    3415 H6         -59.5690   -53.2216    94.4468 H6            1 RES     
    3416 H6         -60.8537   -51.9559    94.4703 H6            1 RES     
    3417 C0         -78.0508   -42.3633   102.9102 C0            1 RES     
    3418 C0         -78.9875   -41.8878   104.0213 C0            1 RES     
    3419 C0         -78.5733   -42.3191   105.2369 C0            1 RES     
    3420 S1         -79.5308   -41.7736   106.4966 S1            1 RES     
    3421 C0         -80.5604   -40.9165   105.4443 C0            1 RES     
    3422 C0         -80.0889   -41.0408   104.1263 C0            1 RES     
    3423 C0         -77.3230   -42.9836   105.1030 C0            1 RES     
    3424 C0         -76.9795   -42.9618   103.8349 C0            1 RES     
    3425 C0         -75.6008   -43.3740   103.6483 C0            1 RES     
    3426 C0         -75.0229   -43.7070   104.8640 C0            1 RES     
    3427 S1         -76.1225   -43.5613   106.2874 S1            1 RES     
    3428 H2         -80.5104   -40.4858   103.3155 H2            1 RES     
    3429 H2         -75.0420   -43.2931   102.7319 H2            1 RES     
    3430 N3         -83.8681   -39.1333   105.1812 N3            1 RES     
    3431 C0         -82.7468   -39.8436   104.8688 C0            1 RES     
    3432 C0         -81.7587   -40.1256   105.8335 C0            1 RES     
    3433 C0         -81.9887   -39.6514   107.1357 C0            1 RES     
    3434 N3         -81.1391   -39.8319   108.1820 N3            1 RES     
    3435 S1         -81.9131   -39.0427   109.4119 S1            1 RES     
    3436 N3         -83.2928   -38.4680   108.7089 N3            1 RES     
    3437 C0         -83.1610   -38.9050   107.4300 C0            1 RES     
    3438 C0         -84.0969   -38.6552   106.4349 C0            1 RES     
    3439 H4         -82.6421   -40.2190   103.8662 H4            1 RES     
    3440 C5         -84.0096   -34.5249   102.2183 C5            1 RES     
    3441 C5         -82.6533   -35.1029   102.6251 C5            1 RES     
    3442 C5         -82.6147   -36.6414   102.6380 C5            1 RES     
    3443 C5         -82.8781   -37.2901   101.2648 C5            1 RES     
    3444 C5         -82.7668   -38.8214   101.3638 C5            1 RES     
    3445 C5         -83.2277   -39.5346   100.0848 C5            1 RES     
    3446 C5         -83.1921   -41.0756   100.2205 C5            1 RES     
    3447 C5         -81.7839   -41.7245   100.0448 C5            1 RES     
    3448 C5         -81.2158   -42.5064   101.2691 C5            1 RES     
    3449 C5         -82.1348   -43.6884   101.6950 C5            1 RES     
    3450 C5         -81.9473   -44.0774   103.1733 C5            1 RES     
    3451 C5         -83.1713   -44.8464   103.7151 C5            1 RES     
    3452 C5         -83.1064   -44.9781   105.2475 C5            1 RES     
    3453 C5         -84.4262   -45.4632   105.8738 C5            1 RES     
    3454 C5         -84.8090   -46.8853   105.4794 C5            1 RES     
    3455 C5         -79.7485   -42.9214   100.9240 C5            1 RES     
    3456 C0         -78.6524   -43.4592   101.9227 C0            1 RES     
    3457 C5         -77.5304   -44.0959   100.9929 C5            1 RES     
    3458 C5         -77.5526   -45.6593   100.9176 C5            1 RES     
    3459 C5         -76.7590   -46.3549   102.0724 C5            1 RES     
    3460 C5         -75.2179   -46.2952   101.9533 C5            1 RES     
    3461 C5         -74.4653   -46.8229   103.1883 C5            1 RES     
    3462 C5         -74.5275   -48.3476   103.4007 C5            1 RES     
    3463 C5         -73.8911   -49.1914   102.2751 C5            1 RES     
    3464 C5         -72.4047   -48.8930   102.0529 C5            1 RES     
    3465 C5         -77.1903   -46.2254    99.5042 C5            1 RES     
    3466 C5         -75.9650   -45.6152    98.7758 C5            1 RES     
    3467 C5         -75.5705   -46.3873    97.4965 C5            1 RES     
    3468 C5         -76.6803   -46.4514    96.4299 C5            1 RES     
    3469 C5         -76.2624   -47.2166    95.1580 C5            1 RES     
    3470 C5         -75.1596   -46.5056    94.3497 C5            1 RES     
    3471 C5         -74.7413   -47.2705    93.0811 C5            1 RES     
    3472 C5         -75.8612   -47.4104    92.0489 C5            1 RES     
    3473 H6         -84.2560   -34.7874   101.1695 H6            1 RES     
    3474 H6         -83.9737   -33.4170   102.2910 H6            1 RES     
    3475 H6         -84.8099   -34.8975   102.8923 H6            1 RES     
    3476 H6         -81.8673   -34.7113   101.9450 H6            1 RES     
    3477 H6         -82.4275   -34.7479   103.6552 H6            1 RES     
    3478 H6         -81.6091   -36.9512   102.9966 H6            1 RES     
    3479 H6         -83.3690   -37.0092   103.3683 H6            1 RES     
    3480 H6         -82.1506   -36.9132   100.5132 H6            1 RES     
    3481 H6         -83.9057   -37.0270   100.9368 H6            1 RES     
    3482 H6         -81.7235   -39.1048   101.6200 H6            1 RES     
    3483 H6         -83.4546   -39.1489   102.1679 H6            1 RES     
    3484 H6         -84.2889   -39.2392    99.9277 H6            1 RES     
    3485 H6         -82.6490   -39.2089    99.1938 H6            1 RES     
    3486 H6         -83.6970   -41.3499   101.1687 H6            1 RES     
    3487 H6         -83.8206   -41.4835    99.4006 H6            1 RES     
    3488 H6         -81.0745   -40.9049    99.7911 H6            1 RES     
    3489 H6         -81.8005   -42.3955    99.1587 H6            1 RES     
    3490 H6         -81.2593   -41.7720   102.0419 H6            1 RES     
    3491 H6         -83.1779   -43.3349   101.6277 H6            1 RES     
    3492 H6         -82.0657   -44.5587   101.0070 H6            1 RES     
    3493 H6         -80.9972   -44.6303   103.3313 H6            1 RES     
    3494 H6         -81.9074   -43.1340   103.7571 H6            1 RES     
    3495 H6         -83.2642   -45.8378   103.2222 H6            1 RES     
    3496 H6         -84.0818   -44.2502   103.4829 H6            1 RES     
    3497 H6         -82.2621   -45.6363   105.5431 H6            1 RES     
    3498 H6         -82.9233   -43.9666   105.6747 H6            1 RES     
    3499 H6         -85.2496   -44.7695   105.5913 H6            1 RES     
    3500 H6         -84.3194   -45.4287   106.9798 H6            1 RES     
    3501 H6         -84.0130   -47.5944   105.7886 H6            1 RES     
    3502 H6         -84.9774   -46.9638   104.3861 H6            1 RES     
    3503 H6         -85.7529   -47.1632   105.9959 H6            1 RES     
    3504 H6         -79.2551   -42.0480   100.4424 H6            1 RES     
    3505 H6         -79.8884   -43.6933   100.1316 H6            1 RES     
    3506 H6         -77.6791   -43.7048    99.9645 H6            1 RES     
    3507 H6         -76.5126   -43.7337   101.1934 H6            1 RES     
    3508 H6         -78.6135   -45.9666   101.0653 H6            1 RES     
    3509 H6         -77.0817   -45.8971   103.0326 H6            1 RES     
    3510 H6         -77.0436   -47.4284   102.1020 H6            1 RES     
    3511 H6         -74.8670   -46.8615   101.0732 H6            1 RES     
    3512 H6         -74.9151   -45.2469   101.8153 H6            1 RES     
    3513 H6         -73.3983   -46.5287   103.1020 H6            1 RES     
    3514 H6         -74.8607   -46.3176   104.0925 H6            1 RES     
    3515 H6         -75.5839   -48.6599   103.5337 H6            1 RES     
    3516 H6         -73.9886   -48.5795   104.3458 H6            1 RES     
    3517 H6         -74.4396   -49.0515   101.3212 H6            1 RES     
    3518 H6         -73.9844   -50.2619   102.5590 H6            1 RES     
    3519 H6         -71.8320   -49.0468   102.9922 H6            1 RES     
    3520 H6         -72.0009   -49.5776   101.2773 H6            1 RES     
    3521 H6         -72.2518   -47.8546   101.6940 H6            1 RES     
    3522 H6         -78.0610   -46.0297    98.8431 H6            1 RES     
    3523 H6         -77.0847   -47.3289    99.5915 H6            1 RES     
    3524 H6         -75.0671   -45.6062    99.4100 H6            1 RES     
    3525 H6         -76.1724   -44.5591    98.5109 H6            1 RES     
    3526 H6         -74.6811   -45.8739    97.0765 H6            1 RES     
    3527 H6         -75.2732   -47.4225    97.7743 H6            1 RES     
    3528 H6         -77.0069   -45.4254    96.1543 H6            1 RES     
    3529 H6         -77.5491   -46.9938    96.8578 H6            1 RES     
    3530 H6         -75.9314   -48.2422    95.4332 H6            1 RES     
    3531 H6         -77.1682   -47.3027    94.5229 H6            1 RES     
    3532 H6         -74.2493   -46.4064    94.9748 H6            1 RES     
    3533 H6         -75.5030   -45.4865    94.0671 H6            1 RES     
    3534 H6         -73.9085   -46.7099    92.6029 H6            1 RES     
    3535 H6         -74.3642   -48.2794    93.3560 H6            1 RES     
    3536 H6         -76.6976   -48.0225    92.4424 H6            1 RES     
    3537 H6         -75.4653   -47.9208    91.1454 H6            1 RES     
    3538 H6         -76.2403   -46.4097    91.7526 H6            1 RES     
    3539 C0         -87.9153   -35.2767   105.8502 C0            1 RES     
    3540 C0         -88.4755   -34.9038   107.2232 C0            1 RES     
    3541 C0         -88.0618   -35.7702   108.1789 C0            1 RES     
    3542 S1         -88.5974   -35.3710   109.7136 S1            1 RES     
    3543 C0         -89.4209   -33.9902   109.1504 C0            1 RES     
    3544 C0         -89.2071   -33.8507   107.7684 C0            1 RES     
    3545 C0         -87.1348   -36.6899   107.6155 C0            1 RES     
    3546 C0         -86.9850   -36.3955   106.3437 C0            1 RES     
    3547 C0         -85.8618   -37.1053   105.7603 C0            1 RES     
    3548 C0         -85.2628   -37.9279   106.7023 C0            1 RES     
    3549 S1         -86.0406   -37.9021   108.3304 S1            1 RES     
    3550 H2         -89.5297   -32.9877   107.2260 H2            1 RES     
    3551 H2         -85.4422   -36.9203   104.7865 H2            1 RES     
    3552 N3         -91.9514   -31.3534   110.0630 N3            1 RES     
    3553 C0         -91.1850   -32.2264   109.3491 C0            1 RES     
    3554 C0         -90.2216   -33.0443   109.9732 C0            1 RES     
    3555 C0         -90.0962   -32.9273   111.3674 C0            1 RES     
    3556 N3         -89.2168   -33.6373   112.1235 N3            1 RES     
    3557 S1         -89.5045   -33.0583   113.6456 S1            1 RES     
    3558 N3         -90.6993   -31.9394   113.4256 N3            1 RES     
    3559 C0         -90.9008   -32.0016   112.0842 C0            1 RES     
    3560 C0         -91.8304   -31.2190   111.4121 C0            1 RES     
    3561 H4         -91.3525   -32.3056   108.2895 H4            1 RES     
    3562 C5         -90.9694   -26.2347   108.3686 C5            1 RES     
    3563 C5         -89.8389   -27.2634   108.3129 C5            1 RES     
    3564 C5         -90.3117   -28.6842   107.9571 C5            1 RES     
    3565 C5         -90.9653   -28.8011   106.5660 C5            1 RES     
    3566 C5         -91.3558   -30.2609   106.2770 C5            1 RES     
    3567 C5         -92.2018   -30.4089   105.0044 C5            1 RES     
    3568 C5         -92.6610   -31.8669   104.7649 C5            1 RES     
    3569 C5         -91.5874   -32.8045   104.1299 C5            1 RES     
    3570 C5         -91.1453   -34.0372   104.9774 C5            1 RES     
    3571 C5         -92.3352   -34.9837   105.3111 C5            1 RES     
    3572 C5         -92.0821   -35.8246   106.5764 C5            1 RES     
    3573 C5         -93.4032   -36.3418   107.1850 C5            1 RES     
    3574 C5         -93.1715   -36.9288   108.5891 C5            1 RES     
    3575 C5         -94.4759   -37.1843   109.3656 C5            1 RES     
    3576 C5         -95.3602   -38.2609   108.7465 C5            1 RES     
    3577 C5         -89.9627   -34.7281   104.2235 C5            1 RES     
    3578 C0         -88.9787   -35.8201   104.7956 C0            1 RES     
    3579 C5         -88.2737   -36.4454   103.5147 C5            1 RES     
    3580 C5         -88.8239   -37.8460   103.0833 C5            1 RES     
    3581 C5         -88.1525   -39.0428   103.8344 C5            1 RES     
    3582 C5         -86.7118   -39.3868   103.3885 C5            1 RES     
    3583 C5         -86.0118   -40.4421   104.2640 C5            1 RES     
    3584 C5         -86.5460   -41.8802   104.1228 C5            1 RES     
    3585 C5         -86.3903   -42.5010   102.7176 C5            1 RES     
    3586 C5         -84.9359   -42.5812   102.2423 C5            1 RES     
    3587 C5         -88.8720   -38.0517   101.5326 C5            1 RES     
    3588 C5         -87.6285   -37.6254   100.7101 C5            1 RES     
    3589 C5         -87.6961   -38.0676    99.2308 C5            1 RES     
    3590 C5         -88.9022   -37.5020    98.4570 C5            1 RES     
    3591 C5         -88.9447   -37.9467    96.9810 C5            1 RES     
    3592 C5         -87.7934   -37.3704    96.1341 C5            1 RES     
    3593 C5         -87.8349   -37.8159    94.6613 C5            1 RES     
    3594 C5         -89.0707   -37.3268    93.9046 C5            1 RES     
    3595 H6         -91.4333   -26.0984   107.3708 H6            1 RES     
    3596 H6         -90.5580   -25.2535   108.6881 H6            1 RES     
    3597 H6         -91.7451   -26.5475   109.0995 H6            1 RES     
    3598 H6         -89.0712   -26.9275   107.5840 H6            1 RES     
    3599 H6         -89.3661   -27.3038   109.3193 H6            1 RES     
    3600 H6         -89.4262   -29.3550   107.9974 H6            1 RES     
    3601 H6         -91.0350   -29.0219   108.7319 H6            1 RES     
    3602 H6         -90.2669   -28.4412   105.7792 H6            1 RES     
    3603 H6         -91.8826   -28.1757   106.5488 H6            1 RES     
    3604 H6         -90.4408   -30.8882   106.2181 H6            1 RES     
    3605 H6         -91.9934   -30.6022   107.1160 H6            1 RES     
    3606 H6         -93.1157   -29.7945   105.1639 H6            1 RES     
    3607 H6         -91.6788   -30.0131   104.1073 H6            1 RES     
    3608 H6         -93.0901   -32.2531   105.7115 H6            1 RES     
    3609 H6         -93.4977   -31.8231   104.0356 H6            1 RES     
    3610 H6         -90.6892   -32.1807   103.9216 H6            1 RES     
    3611 H6         -91.9499   -33.1538   103.1388 H6            1 RES     
    3612 H6         -90.8338   -33.5799   105.8897 H6            1 RES     
    3613 H6         -93.2003   -34.3476   105.5650 H6            1 RES     
    3614 H6         -92.6560   -35.5972   104.4416 H6            1 RES     
    3615 H6         -91.3572   -36.6433   106.3827 H6            1 RES     
    3616 H6         -91.6499   -35.1444   107.3400 H6            1 RES     
    3617 H6         -93.8880   -37.0775   106.5081 H6            1 RES     
    3618 H6         -94.0872   -35.4728   107.3097 H6            1 RES     
    3619 H6         -92.5609   -37.8542   108.5248 H6            1 RES     
    3620 H6         -92.6051   -36.1809   109.1882 H6            1 RES     
    3621 H6         -95.0533   -36.2361   109.4459 H6            1 RES     
    3622 H6         -94.2097   -37.5065   110.3957 H6            1 RES     
    3623 H6         -94.8097   -39.2233   108.6941 H6            1 RES     
    3624 H6         -95.6967   -37.9654   107.7320 H6            1 RES     
    3625 H6         -96.2606   -38.4006   109.3829 H6            1 RES     
    3626 H6         -89.2801   -33.9276   103.8608 H6            1 RES     
    3627 H6         -90.4605   -35.1624   103.3252 H6            1 RES     
    3628 H6         -88.4268   -35.7452   102.6668 H6            1 RES     
    3629 H6         -87.1759   -36.4593   103.5597 H6            1 RES     
    3630 H6         -89.8948   -37.8718   103.3903 H6            1 RES     
    3631 H6         -88.1670   -38.8147   104.9222 H6            1 RES     
    3632 H6         -88.7702   -39.9526   103.6758 H6            1 RES     
    3633 H6         -86.6959   -39.7454   102.3448 H6            1 RES     
    3634 H6         -86.1008   -38.4735   103.4347 H6            1 RES     
    3635 H6         -84.9308   -40.4480   104.0107 H6            1 RES     
    3636 H6         -86.0861   -40.1337   105.3263 H6            1 RES     
    3637 H6         -87.6165   -41.9075   104.4136 H6            1 RES     
    3638 H6         -85.9878   -42.5203   104.8412 H6            1 RES     
    3639 H6         -86.9892   -41.9398   101.9716 H6            1 RES     
    3640 H6         -86.7928   -43.5362   102.7572 H6            1 RES     
    3641 H6         -84.3209   -43.1577   102.9658 H6            1 RES     
    3642 H6         -84.8951   -43.0935   101.2578 H6            1 RES     
    3643 H6         -84.4988   -41.5702   102.1109 H6            1 RES     
    3644 H6         -89.7120   -37.4345   101.1491 H6            1 RES     
    3645 H6         -89.1275   -39.1154   101.3336 H6            1 RES     
    3646 H6         -86.6990   -38.0552   101.1098 H6            1 RES     
    3647 H6         -87.5086   -36.5243   100.7529 H6            1 RES     
    3648 H6         -86.7550   -37.7255    98.7531 H6            1 RES     
    3649 H6         -87.7235   -39.1787    99.1849 H6            1 RES     
    3650 H6         -88.9051   -36.3918    98.5095 H6            1 RES     
    3651 H6         -89.8327   -37.8786    98.9308 H6            1 RES     
    3652 H6         -88.9377   -39.0576    96.9272 H6            1 RES     
    3653 H6         -89.9074   -37.5848    96.5643 H6            1 RES     
    3654 H6         -86.8236   -37.7187    96.5435 H6            1 RES     
    3655 H6         -87.8151   -36.2597    96.1822 H6            1 RES     
    3656 H6         -86.9390   -37.3977    94.1523 H6            1 RES     
    3657 H6         -87.7794   -38.9244    94.6008 H6            1 RES     
    3658 H6         -89.9989   -37.7661    94.3222 H6            1 RES     
    3659 H6         -88.9975   -37.6402    92.8415 H6            1 RES     
    3660 H6         -89.1338   -36.2189    93.9434 H6            1 RES     
    3661 C0         -94.3531   -26.8863   112.5083 C0            1 RES     
    3662 C0         -94.5593   -26.7898   114.0202 C0            1 RES     
    3663 C0         -94.3270   -27.9777   114.6287 C0            1 RES     
    3664 S1         -94.4789   -27.9113   116.2943 S1            1 RES     
    3665 C0         -94.8678   -26.2529   116.2695 C0            1 RES     
    3666 C0         -94.8158   -25.7811   114.9467 C0            1 RES     
    3667 C0         -93.8464   -28.9140   113.6722 C0            1 RES     
    3668 C0         -93.7873   -28.3149   112.5042 C0            1 RES     
    3669 C0         -93.0570   -29.1087   111.5336 C0            1 RES     
    3670 C0         -92.6392   -30.3046   112.0976 C0            1 RES     
    3671 S1         -93.1278   -30.5388   113.8188 S1            1 RES     
    3672 H2         -94.9064   -24.7430   114.7079 H2            1 RES     
    3673 H2         -92.7406   -28.7727   110.5611 H2            1 RES     
    3674 N3         -96.2253   -23.3985   118.3186 N3            1 RES     
    3675 C0         -95.9001   -24.2030   117.2668 C0            1 RES     
    3676 C0         -95.1854   -25.4040   117.4491 C0            1 RES     
    3677 C0         -94.8342   -25.7404   118.7669 C0            1 RES     
    3678 N3         -94.1435   -26.8579   119.1182 N3            1 RES     
    3679 S1         -94.0062   -26.6932   120.7580 S1            1 RES     
    3680 N3         -94.7803   -25.2702   121.0804 N3            1 RES     
    3681 C0         -95.1769   -24.8778   119.8424 C0            1 RES     
    3682 C0         -95.8786   -23.7045   119.5988 C0            1 RES     
    3683 H4         -96.2313   -23.9182   116.2837 H4            1 RES     
    3684 C5         -93.8479   -18.5006   117.6901 C5            1 RES     
    3685 C5         -93.1426   -19.7424   117.1426 C5            1 RES     
    3686 C5         -94.1050   -20.8038   116.5807 C5            1 RES     
    3687 C5         -94.9486   -20.3198   115.3848 C5            1 RES     
    3688 C5         -95.8379   -21.4596   114.8584 C5            1 RES     
    3689 C5         -96.8546   -20.9846   113.8107 C5            1 RES     
    3690 C5         -97.8005   -22.1179   113.3471 C5            1 RES     
    3691 C5         -97.1992   -23.0909   112.2856 C5            1 RES     
    3692 C5         -97.0771   -24.5898   112.6998 C5            1 RES     
    3693 C5         -98.4544   -25.2180   113.0624 C5            1 RES     
    3694 C5         -98.3200   -26.4279   114.0058 C5            1 RES     
    3695 C5         -99.6387   -26.7072   114.7583 C5            1 RES     
    3696 C5         -99.4206   -27.7198   115.8972 C5            1 RES     
    3697 C5        -100.6132   -27.8137   116.8658 C5            1 RES     
    3698 C5        -101.8823   -28.3679   116.2280 C5            1 RES     
    3699 C5         -96.3089   -25.3333   111.5589 C5            1 RES     
    3700 C0         -95.6732   -26.7753   111.6234 C0            1 RES     
    3701 C5         -95.4027   -27.1703   110.1069 C5            1 RES     
    3702 C5         -96.4413   -28.1694   109.4957 C5            1 RES     
    3703 C5         -96.1069   -29.6718   109.7754 C5            1 RES     
    3704 C5         -94.9397   -30.2608   108.9488 C5            1 RES     
    3705 C5         -94.5141   -31.6783   109.3727 C5            1 RES     
    3706 C5         -95.5096   -32.8012   109.0236 C5            1 RES     
    3707 C5         -95.7674   -33.0011   107.5144 C5            1 RES     
    3708 C5         -94.5039   -33.3443   106.7185 C5            1 RES     
    3709 C5         -96.7719   -27.8901   107.9917 C5            1 RES     
    3710 C5         -95.5857   -27.6094   107.0332 C5            1 RES     
    3711 C5         -96.0030   -27.5616   105.5458 C5            1 RES     
    3712 C5         -97.0488   -26.4792   105.2177 C5            1 RES     
    3713 C5         -97.4430   -26.4417   103.7273 C5            1 RES     
    3714 C5         -96.2964   -25.9910   102.8015 C5            1 RES     
    3715 C5         -96.6895   -25.9554   101.3136 C5            1 RES     
    3716 C5         -97.7862   -24.9395   100.9905 C5            1 RES     
    3717 H6         -94.3753   -17.9536   116.8826 H6            1 RES     
    3718 H6         -93.0936   -17.8130   118.1288 H6            1 RES     
    3719 H6         -94.5728   -18.7823   118.4831 H6            1 RES     
    3720 H6         -92.4171   -19.4380   116.3586 H6            1 RES     
    3721 H6         -92.5738   -20.2068   117.9785 H6            1 RES     
    3722 H6         -93.4960   -21.6777   116.2627 H6            1 RES     
    3723 H6         -94.7832   -21.1358   117.3976 H6            1 RES     
    3724 H6         -94.2880   -19.9571   114.5673 H6            1 RES     
    3725 H6         -95.5991   -19.4853   115.7212 H6            1 RES     
    3726 H6         -95.2008   -22.2731   114.4501 H6            1 RES     
    3727 H6         -96.4282   -21.8378   115.7160 H6            1 RES     
    3728 H6         -97.4808   -20.2128   114.3109 H6            1 RES     
    3729 H6         -96.3611   -20.5074   112.9368 H6            1 RES     
    3730 H6         -98.1962   -22.6272   114.2489 H6            1 RES     
    3731 H6         -98.6687   -21.6292   112.8560 H6            1 RES     
    3732 H6         -96.1835   -22.7124   112.0319 H6            1 RES     
    3733 H6         -97.7922   -23.0182   111.3482 H6            1 RES     
    3734 H6         -96.5068   -24.5265   113.5994 H6            1 RES     
    3735 H6         -99.0147   -24.4676   113.6460 H6            1 RES     
    3736 H6         -99.0792   -25.4340   112.1689 H6            1 RES     
    3737 H6         -97.9427   -27.3233   113.4681 H6            1 RES     
    3738 H6         -97.5841   -26.1513   114.7896 H6            1 RES     
    3739 H6        -100.4300   -27.0452   114.0555 H6            1 RES     
    3740 H6         -99.9709   -25.7572   115.2333 H6            1 RES     
    3741 H6         -99.1671   -28.7184   115.4827 H6            1 RES     
    3742 H6         -98.5599   -27.3708   116.5109 H6            1 RES     
    3743 H6        -100.8259   -26.8083   117.2932 H6            1 RES     
    3744 H6        -100.3275   -28.4844   117.7050 H6            1 RES     
    3745 H6        -101.6955   -29.3869   115.8296 H6            1 RES     
    3746 H6        -102.2403   -27.7063   115.4132 H6            1 RES     
    3747 H6        -102.6793   -28.4286   117.0001 H6            1 RES     
    3748 H6         -95.4573   -24.6874   111.2490 H6            1 RES     
    3749 H6         -97.0434   -25.3273   110.7199 H6            1 RES     
    3750 H6         -95.4320   -26.2391   109.5029 H6            1 RES     
    3751 H6         -94.3770   -27.5048   109.8989 H6            1 RES     
    3752 H6         -97.4058   -27.9816   110.0213 H6            1 RES     
    3753 H6         -95.8921   -29.7775   110.8609 H6            1 RES     
    3754 H6         -97.0073   -30.2832   109.5520 H6            1 RES     
    3755 H6         -95.1901   -30.2876   107.8741 H6            1 RES     
    3756 H6         -94.0601   -29.6114   109.0681 H6            1 RES     
    3757 H6         -93.5432   -31.9135   108.8882 H6            1 RES     
    3758 H6         -94.3322   -31.6864   110.4663 H6            1 RES     
    3759 H6         -96.4765   -32.6102   109.5335 H6            1 RES     
    3760 H6         -95.1006   -33.7533   109.4279 H6            1 RES     
    3761 H6         -96.2444   -32.1014   107.0747 H6            1 RES     
    3762 H6         -96.4809   -33.8456   107.4008 H6            1 RES     
    3763 H6         -94.0202   -34.2559   107.1297 H6            1 RES     
    3764 H6         -94.7739   -33.5359   105.6584 H6            1 RES     
    3765 H6         -93.7791   -32.5047   106.7318 H6            1 RES     
    3766 H6         -97.4043   -26.9776   107.9623 H6            1 RES     
    3767 H6         -97.3911   -28.7322   107.6126 H6            1 RES     
    3768 H6         -94.8053   -28.3806   107.1015 H6            1 RES     
    3769 H6         -95.1025   -26.6494   107.3038 H6            1 RES     
    3770 H6         -95.0785   -27.3739   104.9619 H6            1 RES     
    3771 H6         -96.4036   -28.5560   105.2491 H6            1 RES     
    3772 H6         -96.6757   -25.4791   105.5273 H6            1 RES     
    3773 H6         -97.9754   -26.7004   105.7875 H6            1 RES     
    3774 H6         -97.8128   -27.4433   103.4154 H6            1 RES     
    3775 H6         -98.2793   -25.7184   103.6345 H6            1 RES     
    3776 H6         -95.4500   -26.7018   102.8889 H6            1 RES     
    3777 H6         -95.9414   -24.9838   103.1112 H6            1 RES     
    3778 H6         -95.7864   -25.6762   100.7281 H6            1 RES     
    3779 H6         -97.0142   -26.9664   100.9850 H6            1 RES     
    3780 H6         -98.7392   -25.2022   101.4920 H6            1 RES     
    3781 H6         -97.9709   -24.9355    99.8953 H6            1 RES     
    3782 H6         -97.4718   -23.9205   101.3002 H6            1 RES     
    3783 C0         -96.6401   -19.3561   122.2158 C0            1 RES     
    3784 C0         -96.5886   -19.6523   123.7150 C0            1 RES     
    3785 C0         -96.6807   -20.9814   123.9608 C0            1 RES     
    3786 S1         -96.5669   -21.3654   125.5860 S1            1 RES     
    3787 C0         -96.3827   -19.7331   126.0374 C0            1 RES     
    3788 C0         -96.3631   -18.9295   124.8847 C0            1 RES     
    3789 C0         -96.6773   -21.6923   122.7291 C0            1 RES     
    3790 C0         -96.5871   -20.8196   121.7509 C0            1 RES     
    3791 C0         -96.3054   -21.4665   120.4829 C0            1 RES     
    3792 C0         -96.2335   -22.8420   120.6429 C0            1 RES     
    3793 S1         -96.5257   -23.4223   122.3264 S1            1 RES     
    3794 H2         -96.1366   -17.8853   124.9217 H2            1 RES     
    3795 H2         -96.0351   -20.9637   119.5703 H2            1 RES     
    3796 N3         -96.4144   -17.3423   128.9481 N3            1 RES     
    3797 C0         -96.5256   -17.8611   127.6921 C0            1 RES     
    3798 C0         -96.2319   -19.2131   127.4230 C0            1 RES     
    3799 C0         -95.8311   -20.0050   128.5119 C0            1 RES     
    3800 N3         -95.5084   -21.3233   128.4276 N3            1 RES     
    3801 S1         -95.0958   -21.6912   129.9862 S1            1 RES     
    3802 N3         -95.3004   -20.2674   130.7978 N3            1 RES     
    3803 C0         -95.7138   -19.4350   129.8078 C0            1 RES     
    3804 C0         -96.0131   -18.0940   130.0095 C0            1 RES     
    3805 H4         -96.8778   -17.2201   126.9033 H4            1 RES     
    3806 C5         -92.6591   -13.3505   128.9620 C5            1 RES     
    3807 C5         -92.4901   -14.5235   127.9952 C5            1 RES     
    3808 C5         -93.8190   -15.0585   127.4326 C5            1 RES     
    3809 C5         -94.6130   -14.0290   126.6045 C5            1 RES     
    3810 C5         -95.8946   -14.6666   126.0408 C5            1 RES     
    3811 C5         -96.8323   -13.6399   125.3897 C5            1 RES     
    3812 C5         -98.1558   -14.2741   124.8995 C5            1 RES     
    3813 C5         -98.0667   -15.0218   123.5328 C5            1 RES     
    3814 C5         -98.3922   -16.5473   123.5470 C5            1 RES     
    3815 C5         -99.8346   -16.8403   124.0535 C5            1 RES     
    3816 C5         -99.9786   -18.2599   124.6331 C5            1 RES     
    3817 C5        -101.1959   -18.3645   125.5767 C5            1 RES     
    3818 C5        -101.1688   -19.6845   126.3682 C5            1 RES     
    3819 C5        -102.1767   -19.7185   127.5312 C5            1 RES     
    3820 C5        -103.6339   -19.6815   127.0844 C5            1 RES     
    3821 C5         -98.0823   -17.1089   122.1212 C5            1 RES     
    3822 C0         -97.9588   -18.6245   121.7021 C0            1 RES     
    3823 C5         -98.0502   -18.6177   120.1145 C5            1 RES     
    3824 C5         -99.4363   -19.0600   119.5370 C5            1 RES     
    3825 C5         -99.5839   -20.6090   119.3754 C5            1 RES     
    3826 C5         -98.8064   -21.2336   118.1930 C5            1 RES     
    3827 C5         -98.8205   -22.7729   118.1670 C5            1 RES     
    3828 C5        -100.1707   -23.4170   117.7988 C5            1 RES     
    3829 C5        -100.6891   -23.0856   116.3827 C5            1 RES     
    3830 C5         -99.7360   -23.5217   115.2650 C5            1 RES     
    3831 C5         -99.8629   -18.2716   118.2541 C5            1 RES     
    3832 C5         -98.7977   -18.0682   117.1458 C5            1 RES     
    3833 C5         -99.3796   -17.4719   115.8441 C5            1 RES     
    3834 C5        -100.0419   -16.0925   116.0221 C5            1 RES     
    3835 C5        -100.6061   -15.5113   114.7099 C5            1 RES     
    3836 C5         -99.5168   -15.1508   113.6812 C5            1 RES     
    3837 C5        -100.0803   -14.5724   112.3707 C5            1 RES     
    3838 C5        -100.8114   -13.2410   112.5493 C5            1 RES     
    3839 H6         -93.0828   -12.4659   128.4448 H6            1 RES     
    3840 H6         -91.6659   -13.0625   129.3676 H6            1 RES     
    3841 H6         -93.3177   -13.6361   129.8096 H6            1 RES     
    3842 H6         -91.8222   -14.2198   127.1613 H6            1 RES     
    3843 H6         -91.9965   -15.3524   128.5493 H6            1 RES     
    3844 H6         -93.5855   -15.9354   126.7905 H6            1 RES     
    3845 H6         -94.4473   -15.4103   128.2806 H6            1 RES     
    3846 H6         -93.9910   -13.6440   125.7671 H6            1 RES     
    3847 H6         -94.8956   -13.1817   127.2641 H6            1 RES     
    3848 H6         -95.6275   -15.4697   125.3210 H6            1 RES     
    3849 H6         -96.4506   -15.0971   126.8966 H6            1 RES     
    3850 H6         -97.0902   -12.9048   126.1842 H6            1 RES     
    3851 H6         -96.3361   -13.0869   124.5633 H6            1 RES     
    3852 H6         -98.5676   -14.8922   125.7227 H6            1 RES     
    3853 H6         -98.8723   -13.4396   124.7447 H6            1 RES     
    3854 H6         -97.0291   -14.8873   123.1524 H6            1 RES     
    3855 H6         -98.7271   -14.5143   122.7967 H6            1 RES     
    3856 H6         -97.7130   -16.9130   124.2842 H6            1 RES     
    3857 H6        -100.0264   -16.1677   124.9071 H6            1 RES     
    3858 H6        -100.6144   -16.6005   123.2987 H6            1 RES     
    3859 H6         -99.9991   -19.0270   123.8303 H6            1 RES     
    3860 H6         -99.0903   -18.4434   125.2732 H6            1 RES     
    3861 H6        -102.1448   -18.2453   125.0112 H6            1 RES     
    3862 H6        -101.1238   -17.5419   126.3226 H6            1 RES     
    3863 H6        -101.3219   -20.5472   125.6859 H6            1 RES     
    3864 H6        -100.1641   -19.7872   126.8365 H6            1 RES     
    3865 H6        -101.9815   -18.8649   128.2182 H6            1 RES     
    3866 H6        -102.0151   -20.6574   128.1040 H6            1 RES     
    3867 H6        -103.8537   -20.5487   126.4275 H6            1 RES     
    3868 H6        -103.8625   -18.7377   126.5488 H6            1 RES     
    3869 H6        -104.2893   -19.7388   127.9801 H6            1 RES     
    3870 H6         -97.1170   -16.6674   121.7870 H6            1 RES     
    3871 H6         -98.8831   -16.6514   121.4944 H6            1 RES     
    3872 H6         -97.8532   -17.5817   119.7673 H6            1 RES     
    3873 H6         -97.2336   -19.1510   119.6086 H6            1 RES     
    3874 H6        -100.2001   -18.7710   120.2953 H6            1 RES     
    3875 H6         -99.2664   -21.0837   120.3291 H6            1 RES     
    3876 H6        -100.6580   -20.8492   119.2241 H6            1 RES     
    3877 H6         -99.1996   -20.8732   117.2267 H6            1 RES     
    3878 H6         -97.7536   -20.9223   118.2594 H6            1 RES     
    3879 H6         -98.0608   -23.1191   117.4352 H6            1 RES     
    3880 H6         -98.5001   -23.1514   119.1586 H6            1 RES     
    3881 H6        -100.9378   -23.1198   118.5435 H6            1 RES     
    3882 H6        -100.0486   -24.5206   117.8668 H6            1 RES     
    3883 H6        -100.8972   -22.0006   116.2844 H6            1 RES     
    3884 H6        -101.6510   -23.6236   116.2387 H6            1 RES     
    3885 H6         -99.5297   -24.6111   115.3321 H6            1 RES     
    3886 H6        -100.2001   -23.3106   114.2784 H6            1 RES     
    3887 H6         -98.7794   -22.9621   115.3105 H6            1 RES     
    3888 H6        -100.1541   -17.2512   118.5819 H6            1 RES     
    3889 H6        -100.7732   -18.7562   117.8384 H6            1 RES     
    3890 H6         -98.3160   -19.0125   116.8545 H6            1 RES     
    3891 H6         -97.9903   -17.4058   117.5171 H6            1 RES     
    3892 H6         -98.5367   -17.3894   115.1273 H6            1 RES     
    3893 H6        -100.1250   -18.1812   115.4214 H6            1 RES     
    3894 H6         -99.3185   -15.3740   116.4645 H6            1 RES     
    3895 H6        -100.8998   -16.2008   116.7182 H6            1 RES     
    3896 H6        -101.3272   -16.2314   114.2642 H6            1 RES     
    3897 H6        -101.1592   -14.5878   114.9794 H6            1 RES     
    3898 H6         -98.9509   -16.0640   113.4072 H6            1 RES     
    3899 H6         -98.8078   -14.4208   114.1294 H6            1 RES     
    3900 H6         -99.2273   -14.3999   111.6785 H6            1 RES     
    3901 H6        -100.7648   -15.3090   111.8968 H6            1 RES     
    3902 H6        -101.7173   -13.3599   113.1770 H6            1 RES     
    3903 H6        -101.1359   -12.8648   111.5559 H6            1 RES     
    3904 H6        -100.1366   -12.4887   113.0094 H6            1 RES     
    3905 C0         -94.9133   -14.6715   133.6721 C0            1 RES     
    3906 C0         -94.7533   -15.3955   135.0093 C0            1 RES     
    3907 C0         -95.2459   -16.6561   134.9521 C0            1 RES     
    3908 S1         -95.0393   -17.5147   136.3740 S1            1 RES     
    3909 C0         -94.2625   -16.2068   137.1408 C0            1 RES     
    3910 C0         -94.1391   -15.1405   136.2338 C0            1 RES     
    3911 C0         -95.6514   -16.9464   133.6203 C0            1 RES     
    3912 C0         -95.4147   -15.8879   132.8785 C0            1 RES     
    3913 C0         -95.5444   -16.1873   131.4646 C0            1 RES     
    3914 C0         -95.9114   -17.5115   131.2785 C0            1 RES     
    3915 S1         -96.1406   -18.4523   132.8012 S1            1 RES     
    3916 H2         -93.5760   -14.2607   136.4616 H2            1 RES     
    3917 H2         -95.2534   -15.5368   130.6579 H2            1 RES     
    3918 N3         -93.0904   -14.8645   140.4595 N3            1 RES     
    3919 C0         -93.5424   -14.9399   139.1753 C0            1 RES     
    3920 C0         -93.7549   -16.1794   138.5388 C0            1 RES     
    3921 C0         -93.4912   -17.3345   139.2936 C0            1 RES     
    3922 N3         -93.6396   -18.6054   138.8333 N3            1 RES     
    3923 S1         -93.1583   -19.5137   140.1287 S1            1 RES     
    3924 N3         -92.7628   -18.3924   141.2750 N3            1 RES     
    3925 C0         -93.0109   -17.2257   140.6261 C0            1 RES     
    3926 C0         -92.8167   -15.9750   141.1975 C0            1 RES     
    3927 H4         -93.7688   -14.0242   138.6583 H4            1 RES     
    3928 C5         -88.2605   -12.2762   140.5590 C5            1 RES     
    3929 C5         -88.6278   -13.1129   139.3325 C5            1 RES     
    3930 C5         -90.1238   -13.0636   138.9748 C5            1 RES     
    3931 C5         -90.6389   -11.6571   138.6107 C5            1 RES     
    3932 C5         -92.1251   -11.7145   138.2173 C5            1 RES     
    3933 C5         -92.7503   -10.3220   138.0524 C5            1 RES     
    3934 C5         -94.2642   -10.3860   137.7389 C5            1 RES     
    3935 C5         -94.6208   -10.6945   136.2514 C5            1 RES     
    3936 C5         -95.4288   -12.0013   135.9819 C5            1 RES     
    3937 C5         -96.8005   -12.0116   136.7175 C5            1 RES     
    3938 C5         -97.3247   -13.4382   136.9665 C5            1 RES     
    3939 C5         -98.3627   -13.4677   138.1089 C5            1 RES     
    3940 C5         -98.6646   -14.9134   138.5432 C5            1 RES     
    3941 C5         -99.4530   -15.0013   139.8623 C5            1 RES     
    3942 C5        -100.8627   -14.4269   139.7766 C5            1 RES     
    3943 C5         -95.5260   -12.1844   134.4322 C5            1 RES     
    3944 C0         -95.9726   -13.4817   133.6540 C0            1 RES     
    3945 C5         -96.2782   -12.9853   132.1745 C5            1 RES     
    3946 C5         -97.7990   -12.8307   131.8372 C5            1 RES     
    3947 C5         -98.4734   -14.1576   131.3558 C5            1 RES     
    3948 C5         -98.1212   -14.6011   129.9163 C5            1 RES     
    3949 C5         -98.6489   -15.9963   129.5355 C5            1 RES     
    3950 C5        -100.1738   -16.0976   129.3409 C5            1 RES     
    3951 C5        -100.7460   -15.2346   128.1956 C5            1 RES     
    3952 C5        -100.1583   -15.5740   126.8219 C5            1 RES     
    3953 C5         -98.1151   -11.6148   130.9039 C5            1 RES     
    3954 C5         -97.2093   -11.4041   129.6631 C5            1 RES     
    3955 C5         -97.7367   -10.3146   128.7022 C5            1 RES     
    3956 C5         -97.8718    -8.9197   129.3420 C5            1 RES     
    3957 C5         -98.3892    -7.8459   128.3636 C5            1 RES     
    3958 C5         -97.3976    -7.5217   127.2293 C5            1 RES     
    3959 C5         -97.9150    -6.4511   126.2518 C5            1 RES     
    3960 C5         -98.1301    -5.0810   126.8964 C5            1 RES     
    3961 H6         -88.4347   -11.1973   140.3718 H6            1 RES     
    3962 H6         -87.1815   -12.4111   140.7862 H6            1 RES     
    3963 H6         -88.8508   -12.6001   141.4424 H6            1 RES     
    3964 H6         -88.0208   -12.7792   138.4642 H6            1 RES     
    3965 H6         -88.3647   -14.1715   139.5518 H6            1 RES     
    3966 H6         -90.2871   -13.7428   138.1100 H6            1 RES     
    3967 H6         -90.7078   -13.4565   139.8362 H6            1 RES     
    3968 H6         -90.0483   -11.2351   137.7685 H6            1 RES     
    3969 H6         -90.5288   -10.9963   139.4962 H6            1 RES     
    3970 H6         -92.2434   -12.3130   137.2887 H6            1 RES     
    3971 H6         -92.6667   -12.2021   139.0515 H6            1 RES     
    3972 H6         -92.6355    -9.8101   139.0337 H6            1 RES     
    3973 H6         -92.2198    -9.7142   137.2882 H6            1 RES     
    3974 H6         -94.7380   -11.0760   138.4659 H6            1 RES     
    3975 H6         -94.6773    -9.3765   137.9487 H6            1 RES     
    3976 H6         -93.6616   -10.7519   135.6893 H6            1 RES     
    3977 H6         -95.1717    -9.8295   135.8224 H6            1 RES     
    3978 H6         -94.8132   -12.7422   136.4408 H6            1 RES     
    3979 H6         -96.6365   -11.5928   137.7251 H6            1 RES     
    3980 H6         -97.5542   -11.3523   136.2352 H6            1 RES     
    3981 H6         -97.7111   -13.8986   136.0327 H6            1 RES     
    3982 H6         -96.4673   -14.0430   137.3291 H6            1 RES     
    3983 H6         -99.2876   -12.9264   137.8156 H6            1 RES     
    3984 H6         -97.9179   -12.9544   138.9903 H6            1 RES     
    3985 H6         -99.1894   -15.4591   137.7308 H6            1 RES     
    3986 H6         -97.6958   -15.4267   138.7358 H6            1 RES     
    3987 H6         -98.8912   -14.4771   140.6676 H6            1 RES     
    3988 H6         -99.5336   -16.0725   140.1484 H6            1 RES     
    3989 H6        -101.4477   -14.9655   139.0022 H6            1 RES     
    3990 H6        -100.8378   -13.3434   139.5419 H6            1 RES     
    3991 H6        -101.3675   -14.5572   140.7581 H6            1 RES     
    3992 H6         -94.5259   -11.9546   134.0018 H6            1 RES     
    3993 H6         -96.2090   -11.3577   134.1266 H6            1 RES     
    3994 H6         -95.7993   -11.9922   132.0437 H6            1 RES     
    3995 H6         -95.7643   -13.5543   131.3875 H6            1 RES     
    3996 H6         -98.3092   -12.5737   132.7940 H6            1 RES     
    3997 H6         -98.2011   -14.9598   132.0755 H6            1 RES     
    3998 H6         -99.5763   -14.0308   131.3985 H6            1 RES     
    3999 H6         -98.5039   -13.8784   129.1751 H6            1 RES     
    4000 H6         -97.0266   -14.6321   129.8147 H6            1 RES     
    4001 H6         -98.1577   -16.3122   128.5912 H6            1 RES     
    4002 H6         -98.3367   -16.7226   130.3128 H6            1 RES     
    4003 H6        -100.6864   -15.8282   130.2876 H6            1 RES     
    4004 H6        -100.4166   -17.1605   129.1199 H6            1 RES     
    4005 H6        -100.5938   -14.1556   128.4029 H6            1 RES     
    4006 H6        -101.8420   -15.4136   128.1504 H6            1 RES     
    4007 H6        -100.3180   -16.6474   126.5844 H6            1 RES     
    4008 H6        -100.6596   -14.9619   126.0425 H6            1 RES     
    4009 H6         -99.0738   -15.3449   126.7801 H6            1 RES     
    4010 H6         -98.0021   -10.6962   131.5179 H6            1 RES     
    4011 H6         -99.1834   -11.6800   130.6026 H6            1 RES     
    4012 H6         -97.1142   -12.3173   129.0585 H6            1 RES     
    4013 H6         -96.1842   -11.1344   129.9872 H6            1 RES     
    4014 H6         -97.0236   -10.2664   127.8536 H6            1 RES     
    4015 H6         -98.7267   -10.6295   128.3047 H6            1 RES     
    4016 H6         -96.8964    -8.5959   129.7652 H6            1 RES     
    4017 H6         -98.6104    -8.9812   130.1683 H6            1 RES     
    4018 H6         -99.3634    -8.1708   127.9363 H6            1 RES     
    4019 H6         -98.5609    -6.9252   128.9588 H6            1 RES     
    4020 H6         -97.2112    -8.4353   126.6294 H6            1 RES     
    4021 H6         -96.4312    -7.1850   127.6641 H6            1 RES     
    4022 H6         -97.1591    -6.3308   125.4452 H6            1 RES     
    4023 H6         -98.8645    -6.7932   125.7857 H6            1 RES     
    4024 H6         -98.9267    -5.1186   127.6665 H6            1 RES     
    4025 H6         -98.4473    -4.3552   126.1177 H6            1 RES     
    4026 H6         -97.1864    -4.7178   127.3553 H6            1 RES     
    4027 C0         -90.1413   -14.2280   145.2135 C0            1 RES     
    4028 C0         -90.0449   -15.3260   146.2732 C0            1 RES     
    4029 C0         -90.9309   -16.3229   146.0357 C0            1 RES     
    4030 S1         -90.8237   -17.5818   147.1336 S1            1 RES     
    4031 C0         -89.5575   -16.8293   147.9894 C0            1 RES     
    4032 C0         -89.2156   -15.6240   147.3526 C0            1 RES     
    4033 C0         -91.5922   -16.0845   144.7994 C0            1 RES     
    4034 C0         -91.1241   -14.9666   144.2917 C0            1 RES     
    4035 C0         -91.5427   -14.7900   142.9136 C0            1 RES     
    4036 C0         -92.3506   -15.8426   142.5110 C0            1 RES     
    4037 S1         -92.6631   -17.0836   143.7832 S1            1 RES     
    4038 H2         -88.3664   -15.0449   147.6467 H2            1 RES     
    4039 H2         -91.1684   -14.0412   142.2369 H2            1 RES     
    4040 N3         -87.5533   -16.9033   151.1780 N3            1 RES     
    4041 C0         -88.1800   -16.4693   150.0474 C0            1 RES     
    4042 C0         -88.8789   -17.3561   149.2038 C0            1 RES     
    4043 C0         -88.9104   -18.7068   149.5885 C0            1 RES     
    4044 N3         -89.5352   -19.6919   148.8898 N3            1 RES     
    4045 S1         -89.2061   -21.0365   149.7945 S1            1 RES     
    4046 N3         -88.3042   -20.4583   151.0516 N3            1 RES     
    4047 C0         -88.2394   -19.1324   150.7661 C0            1 RES     
    4048 C0         -87.5631   -18.2111   151.5550 C0            1 RES     
    4049 H4         -88.1598   -15.4174   149.8232 H4            1 RES     
    4050 C5         -82.1748   -15.9250   150.7886 C5            1 RES     
    4051 C5         -82.9670   -16.2275   149.5157 C5            1 RES     
    4052 C5         -84.3964   -15.6570   149.5259 C5            1 RES     
    4053 C5         -84.4611   -14.1202   149.6261 C5            1 RES     
    4054 C5         -85.9217   -13.6396   149.5753 C5            1 RES     
    4055 C5         -86.0659   -12.1429   149.8854 C5            1 RES     
    4056 C5         -87.5433   -11.6839   149.9149 C5            1 RES     
    4057 C5         -88.1869   -11.4303   148.5162 C5            1 RES     
    4058 C5         -89.4121   -12.3186   148.1380 C5            1 RES     
    4059 C5         -90.5921   -12.1576   149.1405 C5            1 RES     
    4060 C5         -91.5196   -13.3869   149.1609 C5            1 RES     
    4061 C5         -92.3375   -13.4562   150.4684 C5            1 RES     
    4062 C5         -93.0380   -14.8197   150.6096 C5            1 RES     
    4063 C5         -93.6177   -15.0644   152.0144 C5            1 RES     
    4064 C5         -94.7541   -14.1180   152.3850 C5            1 RES     
    4065 C5         -89.7809   -12.0052   146.6513 C5            1 RES     
    4066 C0         -90.7372   -12.8375   145.7129 C0            1 RES     
    4067 C5         -91.0649   -11.8649   144.4983 C5            1 RES     
    4068 C5         -92.4796   -11.1973   144.5579 C5            1 RES     
    4069 C5         -93.6165   -12.0795   143.9445 C5            1 RES     
    4070 C5         -93.6371   -12.1626   142.4000 C5            1 RES     
    4071 C5         -94.6458   -13.1779   141.8328 C5            1 RES     
    4072 C5         -96.1292   -12.7848   141.9686 C5            1 RES     
    4073 C5         -96.5371   -11.5000   141.2158 C5            1 RES     
    4074 C5         -96.2941   -11.5735   139.7047 C5            1 RES     
    4075 C5         -92.5017    -9.7240   144.0303 C5            1 RES     
    4076 C5         -91.7608    -9.4231   142.7018 C5            1 RES     
    4077 C5         -92.0259    -7.9978   142.1661 C5            1 RES     
    4078 C5         -91.5993    -6.8722   143.1275 C5            1 RES     
    4079 C5         -91.8627    -5.4590   142.5694 C5            1 RES     
    4080 C5         -90.9891    -5.1096   141.3488 C5            1 RES     
    4081 C5         -91.2535    -3.6996   140.7907 C5            1 RES     
    4082 C5         -90.9090    -2.5755   141.7689 C5            1 RES     
    4083 H6         -82.0054   -14.8351   150.9027 H6            1 RES     
    4084 H6         -81.1812   -16.4181   150.7289 H6            1 RES     
    4085 H6         -82.7091   -16.3135   151.6815 H6            1 RES     
    4086 H6         -82.4119   -15.8390   148.6356 H6            1 RES     
    4087 H6         -83.0422   -17.3331   149.4167 H6            1 RES     
    4088 H6         -84.8954   -15.9788   148.5860 H6            1 RES     
    4089 H6         -84.9508   -16.1040   150.3805 H6            1 RES     
    4090 H6         -83.8882   -13.6541   148.7949 H6            1 RES     
    4091 H6         -84.0150   -13.8063   150.5931 H6            1 RES     
    4092 H6         -86.3609   -13.8816   148.5839 H6            1 RES     
    4093 H6         -86.4718   -14.1770   150.3725 H6            1 RES     
    4094 H6         -85.6513   -11.9945   150.9073 H6            1 RES     
    4095 H6         -85.4764   -11.5129   149.1850 H6            1 RES     
    4096 H6         -88.1124   -12.3941   150.5482 H6            1 RES     
    4097 H6         -87.5642   -10.7065   150.4422 H6            1 RES     
    4098 H6         -87.3900   -11.5880   147.7550 H6            1 RES     
    4099 H6         -88.4738   -10.3593   148.4365 H6            1 RES     
    4100 H6         -89.0195   -13.3031   148.2604 H6            1 RES     
    4101 H6         -90.1588   -12.1157   150.1545 H6            1 RES     
    4102 H6         -91.1439   -11.2019   149.0080 H6            1 RES     
    4103 H6         -92.1637   -13.4257   148.2571 H6            1 RES     
    4104 H6         -90.8696   -14.2868   149.1695 H6            1 RES     
    4105 H6         -93.0617   -12.6156   150.5257 H6            1 RES     
    4106 H6         -91.6286   -13.3701   151.3218 H6            1 RES     
    4107 H6         -93.8226   -14.9331   149.8319 H6            1 RES     
    4108 H6         -92.2776   -15.6177   150.4536 H6            1 RES     
    4109 H6         -92.8068   -14.9789   152.7720 H6            1 RES     
    4110 H6         -94.0083   -16.1044   152.0530 H6            1 RES     
    4111 H6         -95.5872   -14.2191   151.6585 H6            1 RES     
    4112 H6         -94.4042   -13.0660   152.4105 H6            1 RES     
    4113 H6         -95.1306   -14.3822   153.3967 H6            1 RES     
    4114 H6         -88.8320   -11.9504   146.0726 H6            1 RES     
    4115 H6         -90.1865   -10.9681   146.7092 H6            1 RES     
    4116 H6         -90.3069   -11.0536   144.4985 H6            1 RES     
    4117 H6         -90.8847   -12.2991   143.5052 H6            1 RES     
    4118 H6         -92.7360   -11.0989   145.6378 H6            1 RES     
    4119 H6         -93.5279   -13.0998   144.3766 H6            1 RES     
    4120 H6         -94.5973   -11.6660   144.2630 H6            1 RES     
    4121 H6         -93.8581   -11.1775   141.9539 H6            1 RES     
    4122 H6         -92.6404   -12.4690   142.0501 H6            1 RES     
    4123 H6         -94.4248   -13.3284   140.7552 H6            1 RES     
    4124 H6         -94.4865   -14.1570   142.3281 H6            1 RES     
    4125 H6         -96.3851   -12.6715   143.0424 H6            1 RES     
    4126 H6         -96.7394   -13.6232   141.5661 H6            1 RES     
    4127 H6         -96.0079   -10.6173   141.6295 H6            1 RES     
    4128 H6         -97.6252   -11.3422   141.3780 H6            1 RES     
    4129 H6         -96.8326   -12.4401   139.2653 H6            1 RES     
    4130 H6         -96.6678   -10.6450   139.2233 H6            1 RES     
    4131 H6         -95.2123   -11.6568   139.4743 H6            1 RES     
    4132 H6         -92.0054    -9.0959   144.8001 H6            1 RES     
    4133 H6         -93.5622    -9.3951   143.9706 H6            1 RES     
    4134 H6         -92.0600   -10.1075   141.8952 H6            1 RES     
    4135 H6         -90.6696    -9.5597   142.8404 H6            1 RES     
    4136 H6         -91.4637    -7.9060   141.2141 H6            1 RES     
    4137 H6         -93.1097    -7.8909   141.9395 H6            1 RES     
    4138 H6         -90.5226    -6.9744   143.3837 H6            1 RES     
    4139 H6         -92.1928    -6.9625   144.0611 H6            1 RES     
    4140 H6         -92.9392    -5.3570   142.3087 H6            1 RES     
    4141 H6         -91.6338    -4.7435   143.3861 H6            1 RES     
    4142 H6         -91.2026    -5.8214   140.5260 H6            1 RES     
    4143 H6         -89.9149    -5.2009   141.6210 H6            1 RES     
    4144 H6         -90.6215    -3.5661   139.8857 H6            1 RES     
    4145 H6         -92.3181    -3.6088   140.4839 H6            1 RES     
    4146 H6         -91.5566    -2.6112   142.6680 H6            1 RES     
    4147 H6         -91.0732    -1.5952   141.2733 H6            1 RES     
    4148 H6         -89.8438    -2.6433   142.0752 H6            1 RES     
    4149 C0         -83.9245   -18.5420   155.1590 C0            1 RES     
    4150 C0         -84.0504   -19.8827   155.8832 C0            1 RES     
    4151 C0         -85.2410   -20.4752   155.6253 C0            1 RES     
    4152 S1         -85.4050   -21.9771   156.3457 S1            1 RES     
    4153 C0         -83.8540   -21.8958   157.0456 C0            1 RES     
    4154 C0         -83.2244   -20.7041   156.6479 C0            1 RES     
    4155 C0         -85.9521   -19.7095   154.6606 C0            1 RES     
    4156 C0         -85.2157   -18.6709   154.3360 C0            1 RES     
    4157 C0         -85.7407   -17.9885   153.1680 C0            1 RES     
    4158 C0         -86.9002   -18.6055   152.7234 C0            1 RES     
    4159 S1         -87.4252   -20.0241   153.7073 S1            1 RES     
    4160 H2         -82.1987   -20.4997   156.8700 H2            1 RES     
    4161 H2         -85.2379   -17.2114   152.6185 H2            1 RES     
    4162 N3         -81.5619   -23.4601   159.5930 N3            1 RES     
    4163 C0         -82.1611   -22.5564   158.7661 C0            1 RES     
    4164 C0         -83.2256   -22.9235   157.9185 C0            1 RES     
    4165 C0         -83.6493   -24.2617   157.9740 C0            1 RES     
    4166 N3         -84.6571   -24.7819   157.2237 N3            1 RES     
    4167 S1         -84.6695   -26.3681   157.6913 S1            1 RES     
    4168 N3         -83.4601   -26.4611   158.8123 N3            1 RES     
    4169 C0         -82.9996   -25.1839   158.8374 C0            1 RES     
    4170 C0         -81.9523   -24.7630   159.6464 C0            1 RES     
    4171 H4         -81.8245   -21.5351   158.7952 H4            1 RES     
    4172 C5         -76.2746   -23.9644   158.2415 C5            1 RES     
    4173 C5         -77.2925   -23.6457   157.1454 C5            1 RES     
    4174 C5         -78.4351   -22.7253   157.6102 C5            1 RES     
    4175 C5         -77.9713   -21.3319   158.0785 C5            1 RES     
    4176 C5         -79.1815   -20.4671   158.4717 C5            1 RES     
    4177 C5         -78.7757   -19.1494   159.1471 C5            1 RES     
    4178 C5         -79.9974   -18.3231   159.6150 C5            1 RES     
    4179 C5         -80.7097   -17.5010   158.4961 C5            1 RES     
    4180 C5         -82.2005   -17.8577   158.2070 C5            1 RES     
    4181 C5         -83.1072   -17.6721   159.4586 C5            1 RES     
    4182 C5         -84.3776   -18.5408   159.3998 C5            1 RES     
    4183 C5         -84.9802   -18.7568   160.8045 C5            1 RES     
    4184 C5         -86.0664   -19.8473   160.7775 C5            1 RES     
    4185 C5         -86.4914   -20.3190   162.1797 C5            1 RES     
    4186 C5         -87.1855   -19.2429   163.0073 C5            1 RES     
    4187 C5         -82.6489   -17.0325   156.9570 C5            1 RES     
    4188 C0         -83.9488   -17.2497   156.0904 C0            1 RES     
    4189 C5         -84.1020   -15.9132   155.2425 C5            1 RES     
    4190 C5         -85.1917   -14.9227   155.7734 C5            1 RES     
    4191 C5         -86.6311   -15.2298   155.2433 C5            1 RES     
    4192 C5         -86.8944   -14.8480   153.7676 C5            1 RES     
    4193 C5         -88.2519   -15.3263   153.2212 C5            1 RES     
    4194 C5         -89.4861   -14.5896   153.7757 C5            1 RES     
    4195 C5         -89.5457   -13.0804   153.4555 C5            1 RES     
    4196 C5         -89.5554   -12.7736   151.9543 C5            1 RES     
    4197 C5         -84.7974   -13.4156   155.6235 C5            1 RES     
    4198 C5         -84.1926   -12.9601   154.2702 C5            1 RES     
    4199 C5         -84.0420   -11.4262   154.1561 C5            1 RES     
    4200 C5         -83.1356   -10.7987   155.2323 C5            1 RES     
    4201 C5         -82.9905    -9.2698   155.0938 C5            1 RES     
    4202 C5         -82.2308    -8.8389   153.8241 C5            1 RES     
    4203 C5         -82.0877    -7.3125   153.6851 C5            1 RES     
    4204 C5         -81.2561    -6.6683   154.7953 C5            1 RES     
    4205 H6         -75.7389   -23.0494   158.5659 H6            1 RES     
    4206 H6         -75.5197   -24.6771   157.8461 H6            1 RES     
    4207 H6         -76.7767   -24.4306   159.1157 H6            1 RES     
    4208 H6         -76.7691   -23.1892   156.2786 H6            1 RES     
    4209 H6         -77.7435   -24.6061   156.8104 H6            1 RES     
    4210 H6         -79.1391   -22.6041   156.7585 H6            1 RES     
    4211 H6         -78.9808   -23.2281   158.4390 H6            1 RES     
    4212 H6         -77.3987   -20.8238   157.2721 H6            1 RES     
    4213 H6         -77.3154   -21.4535   158.9660 H6            1 RES     
    4214 H6         -79.8104   -20.2746   157.5764 H6            1 RES     
    4215 H6         -79.7612   -21.0369   159.2241 H6            1 RES     
    4216 H6         -78.1964   -19.4293   160.0549 H6            1 RES     
    4217 H6         -78.1150   -18.5344   158.4989 H6            1 RES     
    4218 H6         -80.6752   -18.9974   160.1763 H6            1 RES     
    4219 H6         -79.6186   -17.5783   160.3467 H6            1 RES     
    4220 H6         -80.1254   -17.6465   157.5598 H6            1 RES     
    4221 H6         -80.6331   -16.4182   158.7356 H6            1 RES     
    4222 H6         -82.1438   -18.9037   158.0044 H6            1 RES     
    4223 H6         -82.5469   -18.0524   160.3299 H6            1 RES     
    4224 H6         -83.3234   -16.6047   159.6808 H6            1 RES     
    4225 H6         -85.1181   -18.1307   158.6809 H6            1 RES     
    4226 H6         -84.0688   -19.5486   159.0513 H6            1 RES     
    4227 H6         -85.3688   -17.8016   161.2183 H6            1 RES     
    4228 H6         -84.1707   -19.1271   161.4722 H6            1 RES     
    4229 H6         -86.9451   -19.5027   160.1921 H6            1 RES     
    4230 H6         -85.6439   -20.7447   160.2723 H6            1 RES     
    4231 H6         -85.6004   -20.6905   162.7336 H6            1 RES     
    4232 H6         -87.1956   -21.1710   162.0613 H6            1 RES     
    4233 H6         -88.0980   -18.8885   162.4842 H6            1 RES     
    4234 H6         -86.5063   -18.3873   163.1983 H6            1 RES     
    4235 H6         -87.4825   -19.6746   163.9873 H6            1 RES     
    4236 H6         -81.8267   -17.0799   156.2087 H6            1 RES     
    4237 H6         -82.6749   -15.9875   157.3454 H6            1 RES     
    4238 H6         -83.1256   -15.3850   155.2614 H6            1 RES     
    4239 H6         -84.2173   -16.0701   154.1611 H6            1 RES     
    4240 H6         -85.2469   -15.0767   156.8757 H6            1 RES     
    4241 H6         -86.8265   -16.3137   155.3938 H6            1 RES     
    4242 H6         -87.3642   -14.6693   155.8621 H6            1 RES     
    4243 H6         -86.8362   -13.7550   153.6255 H6            1 RES     
    4244 H6         -86.1155   -15.3058   153.1405 H6            1 RES     
    4245 H6         -88.2468   -15.2107   152.1170 H6            1 RES     
    4246 H6         -88.3588   -16.4108   153.4252 H6            1 RES     
    4247 H6         -89.5367   -14.7283   154.8755 H6            1 RES     
    4248 H6         -90.3901   -15.0665   153.3365 H6            1 RES     
    4249 H6         -88.7011   -12.5436   153.9338 H6            1 RES     
    4250 H6         -90.4857   -12.6777   153.8909 H6            1 RES     
    4251 H6         -90.4069   -13.2857   151.4576 H6            1 RES     
    4252 H6         -89.6633   -11.6792   151.8000 H6            1 RES     
    4253 H6         -88.6061   -13.0866   151.4732 H6            1 RES     
    4254 H6         -84.0180   -13.2064   156.3865 H6            1 RES     
    4255 H6         -85.6858   -12.7993   155.8828 H6            1 RES     
    4256 H6         -84.8119   -13.2655   153.4149 H6            1 RES     
    4257 H6         -83.2006   -13.4323   154.1236 H6            1 RES     
    4258 H6         -83.6205   -11.2218   153.1504 H6            1 RES     
    4259 H6         -85.0493   -10.9574   154.2109 H6            1 RES     
    4260 H6         -82.1292   -11.2699   155.2083 H6            1 RES     
    4261 H6         -83.5884   -10.9876   156.2280 H6            1 RES     
    4262 H6         -83.9974    -8.7976   155.1135 H6            1 RES     
    4263 H6         -82.4250    -8.9192   155.9818 H6            1 RES     
    4264 H6         -82.7816    -9.1887   152.9276 H6            1 RES     
    4265 H6         -81.2208    -9.3040   153.8182 H6            1 RES     
    4266 H6         -81.5807    -7.1035   152.7177 H6            1 RES     
    4267 H6         -83.0937    -6.8405   153.6558 H6            1 RES     
    4268 H6         -81.7460    -6.7820   155.7832 H6            1 RES     
    4269 H6         -81.1534    -5.5812   154.5924 H6            1 RES     
    4270 H6         -80.2420    -7.1194   154.8292 H6            1 RES     
    4271 C0         -78.1626   -27.1432   162.1584 C0            1 RES     
    4272 C0         -78.6234   -28.5451   162.5587 C0            1 RES     
    4273 C0         -79.9669   -28.6763   162.4446 C0            1 RES     
    4274 S1         -80.5173   -30.2137   162.8121 S1            1 RES     
    4275 C0         -78.9454   -30.7803   163.1438 C0            1 RES     
    4276 C0         -78.0183   -29.7518   162.9040 C0            1 RES     
    4277 C0         -80.5114   -27.4942   161.8711 C0            1 RES     
    4278 C0         -79.5252   -26.6571   161.6407 C0            1 RES     
    4279 C0         -79.9522   -25.5440   160.8135 C0            1 RES     
    4280 C0         -81.3010   -25.6517   160.5101 C0            1 RES     
    4281 S1         -82.1236   -27.0886   161.2277 S1            1 RES     
    4282 H2         -76.9626   -29.9184   162.9309 H2            1 RES     
    4283 H2         -79.3023   -24.8143   160.3620 H2            1 RES     
    4284 N3         -76.9693   -33.6000   164.6716 N3            1 RES     
    4285 C0         -77.3442   -32.3636   164.2356 C0            1 RES     
    4286 C0         -78.5780   -32.1517   163.5878 C0            1 RES     
    4287 C0         -79.4096   -33.2718   163.4233 C0            1 RES     
    4288 N3         -80.6275   -33.2443   162.8191 N3            1 RES     
    4289 S1         -81.1000   -34.8273   162.8937 S1            1 RES     
    4290 N3         -79.8455   -35.5805   163.6599 N3            1 RES     
    4291 C0         -78.9885   -34.5501   163.8782 C0            1 RES     
    4292 C0         -77.7584   -34.6966   164.5058 C0            1 RES     
    4293 H4         -76.6872   -31.5333   164.4257 H4            1 RES     
    4294 C5         -72.3940   -35.1522   162.0845 C5            1 RES     
    4295 C5         -73.3914   -34.2538   161.3514 C5            1 RES     
    4296 C5         -74.0866   -33.2274   162.2634 C5            1 RES     
    4297 C5         -73.1259   -32.2213   162.9273 C5            1 RES     
    4298 C5         -73.9126   -31.2057   163.7738 C5            1 RES     
    4299 C5         -73.0020   -30.3132   164.6290 C5            1 RES     
    4300 C5         -73.8018   -29.3514   165.5397 C5            1 RES     
    4301 C5         -74.3503   -28.0723   164.8339 C5            1 RES     
    4302 C5         -75.8999   -27.8945   164.8130 C5            1 RES     
    4303 C5         -76.5086   -27.8362   166.2444 C5            1 RES     
    4304 C5         -77.9903   -28.2556   166.2721 C5            1 RES     
    4305 C5         -78.4272   -28.6947   167.6861 C5            1 RES     
    4306 C5         -79.8061   -29.3780   167.6505 C5            1 RES     
    4307 C5         -80.1625   -30.0999   168.9625 C5            1 RES     
    4308 C5         -80.3368   -29.1635   170.1530 C5            1 RES     
    4309 C5         -76.2196   -26.6484   163.9243 C5            1 RES     
    4310 C0         -77.6258   -26.2278   163.3467 C0            1 RES     
    4311 C5         -77.4440   -24.7151   162.8913 C5            1 RES     
    4312 C5         -78.0573   -23.6588   163.8703 C5            1 RES     
    4313 C5         -79.5763   -23.3796   163.6215 C5            1 RES     
    4314 C5         -79.9021   -22.5248   162.3741 C5            1 RES     
    4315 C5         -81.4038   -22.4204   162.0513 C5            1 RES     
    4316 C5         -82.2329   -21.5622   163.0258 C5            1 RES     
    4317 C5         -81.8324   -20.0724   163.0889 C5            1 RES     
    4318 C5         -81.9501   -19.3501   161.7427 C5            1 RES     
    4319 C5         -77.2103   -22.3484   163.9917 C5            1 RES     
    4320 C5         -76.6846   -21.7062   162.6818 C5            1 RES     
    4321 C5         -76.0511   -20.3132   162.8982 C5            1 RES     
    4322 C5         -74.8464   -20.3095   163.8584 C5            1 RES     
    4323 C5         -74.2231   -18.9124   164.0519 C5            1 RES     
    4324 C5         -73.5494   -18.3607   162.7804 C5            1 RES     
    4325 C5         -72.9288   -16.9652   162.9731 C5            1 RES     
    4326 C5         -71.7836   -16.9352   163.9864 C5            1 RES     
    4327 H6         -71.5451   -34.5614   162.4843 H6            1 RES     
    4328 H6         -71.9818   -35.9000   161.3740 H6            1 RES     
    4329 H6         -72.8946   -35.6928   162.9156 H6            1 RES     
    4330 H6         -72.8732   -33.7302   160.5202 H6            1 RES     
    4331 H6         -74.1778   -34.9067   160.9118 H6            1 RES     
    4332 H6         -74.8225   -32.6694   161.6446 H6            1 RES     
    4333 H6         -74.6463   -33.7760   163.0529 H6            1 RES     
    4334 H6         -72.5362   -31.6820   162.1542 H6            1 RES     
    4335 H6         -72.4299   -32.7766   163.5907 H6            1 RES     
    4336 H6         -74.5610   -30.5910   163.1136 H6            1 RES     
    4337 H6         -74.5370   -31.7837   164.4830 H6            1 RES     
    4338 H6         -72.4273   -30.9976   165.2919 H6            1 RES     
    4339 H6         -72.2724   -29.7472   164.0107 H6            1 RES     
    4340 H6         -74.5792   -29.9414   166.0659 H6            1 RES     
    4341 H6         -73.0986   -28.9913   166.3205 H6            1 RES     
    4342 H6         -73.9848   -28.0956   163.7827 H6            1 RES     
    4343 H6         -73.8859   -27.1743   165.2960 H6            1 RES     
    4344 H6         -76.2226   -28.8072   164.3642 H6            1 RES     
    4345 H6         -75.9901   -28.5962   166.8535 H6            1 RES     
    4346 H6         -76.3249   -26.8649   166.7526 H6            1 RES     
    4347 H6         -78.6457   -27.4622   165.8547 H6            1 RES     
    4348 H6         -78.0855   -29.1616   165.6375 H6            1 RES     
    4349 H6         -78.4146   -27.8335   168.3881 H6            1 RES     
    4350 H6         -77.7013   -29.4562   168.0488 H6            1 RES     
    4351 H6         -80.5934   -28.6447   167.3752 H6            1 RES     
    4352 H6         -79.7806   -30.1692   166.8679 H6            1 RES     
    4353 H6         -79.3770   -30.8521   169.1989 H6            1 RES     
    4354 H6         -81.1188   -30.6460   168.8101 H6            1 RES     
    4355 H6         -81.1437   -28.4299   169.9465 H6            1 RES     
    4356 H6         -79.3925   -28.6283   170.3804 H6            1 RES     
    4357 H6         -80.6198   -29.7613   171.0460 H6            1 RES     
    4358 H6         -75.5732   -26.7040   163.0202 H6            1 RES     
    4359 H6         -75.8426   -25.7997   164.5416 H6            1 RES     
    4360 H6         -76.3552   -24.5125   162.8126 H6            1 RES     
    4361 H6         -77.7552   -24.5096   161.8578 H6            1 RES     
    4362 H6         -78.0053   -24.1066   164.8894 H6            1 RES     
    4363 H6         -80.0972   -24.3593   163.5546 H6            1 RES     
    4364 H6         -79.9873   -22.8423   164.5028 H6            1 RES     
    4365 H6         -79.5049   -21.5006   162.4818 H6            1 RES     
    4366 H6         -79.4153   -22.9788   161.4985 H6            1 RES     
    4367 H6         -81.5155   -21.9929   161.0327 H6            1 RES     
    4368 H6         -81.8349   -23.4411   162.0151 H6            1 RES     
    4369 H6         -82.1719   -21.9966   164.0452 H6            1 RES     
    4370 H6         -83.2959   -21.6154   162.7027 H6            1 RES     
    4371 H6         -80.7993   -19.9592   163.4764 H6            1 RES     
    4372 H6         -82.5145   -19.5675   163.8066 H6            1 RES     
    4373 H6         -82.9841   -19.4332   161.3452 H6            1 RES     
    4374 H6         -81.7091   -18.2743   161.8767 H6            1 RES     
    4375 H6         -81.2359   -19.7622   161.0008 H6            1 RES     
    4376 H6         -76.3068   -22.5996   164.5867 H6            1 RES     
    4377 H6         -77.7981   -21.6112   164.5810 H6            1 RES     
    4378 H6         -77.4837   -21.5608   161.9409 H6            1 RES     
    4379 H6         -75.9366   -22.3738   162.2094 H6            1 RES     
    4380 H6         -75.7311   -19.9506   161.8997 H6            1 RES     
    4381 H6         -76.8274   -19.6176   163.2864 H6            1 RES     
    4382 H6         -74.0674   -21.0161   163.4990 H6            1 RES     
    4383 H6         -75.1918   -20.6462   164.8582 H6            1 RES     
    4384 H6         -75.0028   -18.2035   164.4077 H6            1 RES     
    4385 H6         -73.4547   -19.0109   164.8464 H6            1 RES     
    4386 H6         -74.3049   -18.2632   161.9748 H6            1 RES     
    4387 H6         -72.7624   -19.0681   162.4387 H6            1 RES     
    4388 H6         -72.5221   -16.6337   161.9928 H6            1 RES     
    4389 H6         -73.7146   -16.2424   163.2823 H6            1 RES     
    4390 H6         -72.1397   -17.1904   165.0047 H6            1 RES     
    4391 H6         -71.3554   -15.9111   164.0253 H6            1 RES     
    4392 H6         -70.9825   -17.6426   163.6847 H6            1 RES     
    4393 C0         -74.6610   -38.6726   165.4723 C0            1 RES     
    4394 C0         -75.5001   -39.9415   165.6274 C0            1 RES     
    4395 C0         -76.8129   -39.6502   165.7914 C0            1 RES     
    4396 S1         -77.7851   -41.0081   165.9040 S1            1 RES     
    4397 C0         -76.4603   -42.0650   165.7313 C0            1 RES     
    4398 C0         -75.2877   -41.3156   165.5358 C0            1 RES     
    4399 C0         -77.0089   -38.2490   165.6477 C0            1 RES     
    4400 C0         -75.8433   -37.6938   165.4031 C0            1 RES     
    4401 C0         -75.9883   -36.3143   164.9769 C0            1 RES     
    4402 C0         -77.3247   -35.9447   164.9685 C0            1 RES     
    4403 S1         -78.4684   -37.2366   165.4970 S1            1 RES     
    4404 H2         -74.3544   -41.7725   165.2845 H2            1 RES     
    4405 H2         -75.2031   -35.6981   164.5738 H2            1 RES     
    4406 N3         -75.3385   -45.6448   166.0727 N3            1 RES     
    4407 C0         -75.3390   -44.2818   166.0335 C0            1 RES     
    4408 C0         -76.5104   -43.5517   165.7482 C0            1 RES     
    4409 C0         -77.6810   -44.2934   165.5183 C0            1 RES     
    4410 N3         -78.8927   -43.7490   165.2276 N3            1 RES     
    4411 S1         -79.8484   -45.0848   165.0349 S1            1 RES     
    4412 N3         -78.8207   -46.3501   165.3011 N3            1 RES     
    4413 C0         -77.6487   -45.7132   165.5552 C0            1 RES     
    4414 C0         -76.4618   -46.3766   165.8375 C0            1 RES     
    4415 H4         -74.4239   -43.7634   166.2593 H4            1 RES     
    4416 C5         -71.9484   -47.5929   162.2324 C5            1 RES     
    4417 C5         -72.6834   -46.2769   161.9735 C5            1 RES     
    4418 C5         -72.8635   -45.4102   163.2324 C5            1 RES     
    4419 C5         -71.5402   -44.9551   163.8790 C5            1 RES     
    4420 C5         -71.8183   -44.0534   165.0941 C5            1 RES     
    4421 C5         -70.5528   -43.7440   165.9064 C5            1 RES     
    4422 C5         -70.8519   -42.9065   167.1726 C5            1 RES     
    4423 C5         -71.0381   -41.3768   166.9273 C5            1 RES     
    4424 C5         -72.4274   -40.7724   167.2981 C5            1 RES     
    4425 C5         -72.7753   -40.9668   168.8028 C5            1 RES     
    4426 C5         -74.2927   -40.9416   169.0648 C5            1 RES     
    4427 C5         -74.6477   -41.6338   170.3982 C5            1 RES     
    4428 C5         -76.1659   -41.8602   170.5156 C5            1 RES     
    4429 C5         -76.5540   -42.8037   171.6682 C5            1 RES     
    4430 C5         -76.2388   -42.2472   173.0522 C5            1 RES     
    4431 C5         -72.4367   -39.2836   166.8206 C5            1 RES     
    4432 C0         -73.6898   -38.3348   166.6892 C0            1 RES     
    4433 C5         -73.0820   -36.8701   166.5708 C5            1 RES     
    4434 C5         -73.1663   -36.0187   167.8817 C5            1 RES     
    4435 C5         -74.5255   -35.2636   168.0537 C5            1 RES     
    4436 C5         -74.7206   -34.0257   167.1468 C5            1 RES     
    4437 C5         -76.1320   -33.4135   167.2041 C5            1 RES     
    4438 C5         -76.4840   -32.6813   168.5131 C5            1 RES     
    4439 C5         -75.6071   -31.4507   168.8306 C5            1 RES     
    4440 C5         -75.6659   -30.3635   167.7524 C5            1 RES     
    4441 C5         -71.9243   -35.0947   168.1117 C5            1 RES     
    4442 C5         -71.4044   -34.2723   166.9043 C5            1 RES     
    4443 C5         -70.3207   -33.2407   167.2916 C5            1 RES     
    4444 C5         -69.0612   -33.8571   167.9294 C5            1 RES     
    4445 C5         -67.9888   -32.8120   168.2982 C5            1 RES     
    4446 C5         -67.3556   -32.1252   167.0726 C5            1 RES     
    4447 C5         -66.2865   -31.0807   167.4410 C5            1 RES     
    4448 C5         -65.0661   -31.6718   168.1485 C5            1 RES     
    4449 H6         -70.9044   -47.4087   162.5573 H6            1 RES     
    4450 H6         -71.9117   -48.1844   161.2928 H6            1 RES     
    4451 H6         -72.4783   -48.1895   163.0050 H6            1 RES     
    4452 H6         -72.1428   -45.7008   161.1928 H6            1 RES     
    4453 H6         -73.6954   -46.5238   161.5824 H6            1 RES     
    4454 H6         -73.4515   -44.5122   162.9433 H6            1 RES     
    4455 H6         -73.4569   -45.9852   163.9772 H6            1 RES     
    4456 H6         -70.9195   -44.4018   163.1408 H6            1 RES     
    4457 H6         -70.9823   -45.8524   164.2200 H6            1 RES     
    4458 H6         -72.3117   -43.1160   164.7592 H6            1 RES     
    4459 H6         -72.4931   -44.6136   165.7706 H6            1 RES     
    4460 H6         -70.1509   -44.7251   166.2441 H6            1 RES     
    4461 H6         -69.7710   -43.2509   165.2893 H6            1 RES     
    4462 H6         -71.6991   -43.3812   167.7077 H6            1 RES     
    4463 H6         -69.9670   -43.0037   167.8369 H6            1 RES     
    4464 H6         -70.8522   -41.1932   165.8451 H6            1 RES     
    4465 H6         -70.2420   -40.8218   167.4695 H6            1 RES     
    4466 H6         -73.0944   -41.3845   166.7332 H6            1 RES     
    4467 H6         -72.4584   -41.9855   169.0846 H6            1 RES     
    4468 H6         -72.2102   -40.2795   169.4689 H6            1 RES     
    4469 H6         -74.6993   -39.9101   169.0029 H6            1 RES     
    4470 H6         -74.7712   -41.5571   168.2744 H6            1 RES     
    4471 H6         -74.2517   -41.0557   171.2604 H6            1 RES     
    4472 H6         -74.1725   -42.6401   170.3999 H6            1 RES     
    4473 H6         -76.6955   -40.8880   170.6038 H6            1 RES     
    4474 H6         -76.5144   -42.3614   169.5847 H6            1 RES     
    4475 H6         -76.0377   -43.7812   171.5392 H6            1 RES     
    4476 H6         -77.6486   -42.9892   171.6119 H6            1 RES     
    4477 H6         -76.7771   -41.2893   173.2100 H6            1 RES     
    4478 H6         -75.1484   -42.0902   173.1796 H6            1 RES     
    4479 H6         -76.5760   -42.9753   173.8211 H6            1 RES     
    4480 H6         -71.9790   -39.2516   165.8068 H6            1 RES     
    4481 H6         -71.7168   -38.7946   167.5177 H6            1 RES     
    4482 H6         -72.0101   -36.9680   166.2984 H6            1 RES     
    4483 H6         -73.4491   -36.2923   165.7112 H6            1 RES     
    4484 H6         -73.1236   -36.7408   168.7294 H6            1 RES     
    4485 H6         -75.3459   -35.9929   167.8790 H6            1 RES     
    4486 H6         -74.6070   -34.9148   169.1054 H6            1 RES     
    4487 H6         -73.9951   -33.2328   167.3984 H6            1 RES     
    4488 H6         -74.5400   -34.3213   166.1029 H6            1 RES     
    4489 H6         -76.2372   -32.6934   166.3657 H6            1 RES     
    4490 H6         -76.8780   -34.2146   167.0286 H6            1 RES     
    4491 H6         -76.4284   -33.3937   169.3621 H6            1 RES     
    4492 H6         -77.5386   -32.3364   168.4346 H6            1 RES     
    4493 H6         -74.5515   -31.7512   168.9908 H6            1 RES     
    4494 H6         -75.9752   -31.0075   169.7810 H6            1 RES     
    4495 H6         -76.7138   -30.0325   167.5899 H6            1 RES     
    4496 H6         -75.0653   -29.4873   168.0761 H6            1 RES     
    4497 H6         -75.2405   -30.7239   166.7935 H6            1 RES     
    4498 H6         -71.0814   -35.7526   168.4123 H6            1 RES     
    4499 H6         -72.1453   -34.4281   168.9737 H6            1 RES     
    4500 H6         -72.2054   -33.6979   166.4174 H6            1 RES     
    4501 H6         -70.9944   -34.9546   166.1330 H6            1 RES     
    4502 H6         -70.0419   -32.7070   166.3597 H6            1 RES     
    4503 H6         -70.7597   -32.5002   167.9961 H6            1 RES     
    4504 H6         -68.6193   -34.6167   167.2489 H6            1 RES     
    4505 H6         -69.3549   -34.3602   168.8742 H6            1 RES     
    4506 H6         -68.4310   -32.0490   168.9760 H6            1 RES     
    4507 H6         -67.1933   -33.3506   168.8536 H6            1 RES     
    4508 H6         -68.1409   -31.5879   166.5036 H6            1 RES     
    4509 H6         -66.9041   -32.8930   166.4069 H6            1 RES     
    4510 H6         -65.9345   -30.6052   166.4995 H6            1 RES     
    4511 H6         -66.7362   -30.2896   168.0793 H6            1 RES     
    4512 H6         -65.3403   -32.1029   169.1323 H6            1 RES     
    4513 H6         -64.3213   -30.8676   168.3280 H6            1 RES     
    4514 H6         -64.5960   -32.4552   167.5175 H6            1 RES     
    4515 C0         -74.7566   -51.1644   165.1254 C0            1 RES     
    4516 C0         -75.9387   -52.1334   165.1647 C0            1 RES     
    4517 C0         -77.0437   -51.5461   165.6837 C0            1 RES     
    4518 S1         -78.3855   -52.5467   165.6920 S1            1 RES     
    4519 C0         -77.5247   -53.8346   164.9834 C0            1 RES     
    4520 C0         -76.2095   -53.4222   164.7094 C0            1 RES     
    4521 C0         -76.7816   -50.1682   165.9191 C0            1 RES     
    4522 C0         -75.5443   -49.9170   165.5549 C0            1 RES     
    4523 C0         -75.2814   -48.4907   165.5065 C0            1 RES     
    4524 C0         -76.4067   -47.7747   165.8860 C0            1 RES     
    4525 S1         -77.8282   -48.7885   166.3419 S1            1 RES     
    4526 H2         -75.5258   -54.0287   164.1547 H2            1 RES     
    4527 H2         -74.4010   -48.0304   165.0923 H2            1 RES     
    4528 N3         -77.6185   -57.5217   164.2176 N3            1 RES     
    4529 C0         -77.1720   -56.2644   164.4989 C0            1 RES     
    4530 C0         -78.0624   -55.1842   164.6635 C0            1 RES     
    4531 C0         -79.4328   -55.4657   164.5365 C0            1 RES     
    4532 N3         -80.4232   -54.5423   164.6616 N3            1 RES     
    4533 S1         -81.7851   -55.4380   164.3826 S1            1 RES     
    4534 N3         -81.2091   -56.9613   164.1074 N3            1 RES     
    4535 C0         -79.8687   -56.7831   164.2325 C0            1 RES     
    4536 C0         -78.9422   -57.8059   164.0772 C0            1 RES     
    4537 H4         -76.1147   -56.1140   164.6274 H4            1 RES     
    4538 C5         -75.6411   -59.1317   159.3664 C5            1 RES     
    4539 C5         -75.9262   -57.6464   159.5944 C5            1 RES     
    4540 C5         -75.6300   -57.1721   161.0282 C5            1 RES     
    4541 C5         -74.1540   -57.3175   161.4480 C5            1 RES     
    4542 C5         -73.9437   -56.7708   162.8707 C5            1 RES     
    4543 C5         -72.5466   -57.0815   163.4261 C5            1 RES     
    4544 C5         -72.3702   -56.6026   164.8868 C5            1 RES     
    4545 C5         -72.0705   -55.0803   165.0540 C5            1 RES     
    4546 C5         -73.1140   -54.2457   165.8588 C5            1 RES     
    4547 C5         -73.2920   -54.7659   167.3151 C5            1 RES     
    4548 C5         -74.6624   -54.3929   167.9106 C5            1 RES     
    4549 C5         -75.0364   -55.3159   169.0902 C5            1 RES     
    4550 C5         -76.5112   -55.1302   169.4903 C5            1 RES     
    4551 C5         -77.0248   -56.2207   170.4476 C5            1 RES     
    4552 C5         -76.3521   -56.2057   171.8158 C5            1 RES     
    4553 C5         -72.6954   -52.7428   165.7569 C5            1 RES     
    4554 C0         -73.5679   -51.4847   166.1366 C0            1 RES     
    4555 C5         -72.5314   -50.2823   166.2297 C5            1 RES     
    4556 C5         -72.1436   -49.8641   167.6875 C5            1 RES     
    4557 C5         -73.1368   -48.8421   168.3327 C5            1 RES     
    4558 C5         -73.0351   -47.3905   167.8080 C5            1 RES     
    4559 C5         -74.1405   -46.4509   168.3232 C5            1 RES     
    4560 C5         -74.0423   -46.0658   169.8116 C5            1 RES     
    4561 C5         -72.7714   -45.2806   170.2018 C5            1 RES     
    4562 C5         -72.6165   -43.9549   169.4491 C5            1 RES     
    4563 C5         -70.6461   -49.4362   167.8411 C5            1 RES     
    4564 C5         -70.0575   -48.4774   166.7740 C5            1 RES     
    4565 C5         -68.6499   -47.9527   167.1371 C5            1 RES     
    4566 C5         -67.5901   -49.0568   167.3127 C5            1 RES     
    4567 C5         -66.1912   -48.5112   167.6641 C5            1 RES     
    4568 C5         -65.5443   -47.7028   166.5226 C5            1 RES     
    4569 C5         -64.1487   -47.1567   166.8742 C5            1 RES     
    4570 C5         -63.1073   -48.2471   167.1304 C5            1 RES     
    4571 H6         -74.5605   -59.3520   159.4816 H6            1 RES     
    4572 H6         -75.9349   -59.4076   158.3312 H6            1 RES     
    4573 H6         -76.2250   -59.7540   160.0773 H6            1 RES     
    4574 H6         -75.3401   -57.0435   158.8687 H6            1 RES     
    4575 H6         -77.0070   -57.4731   159.3948 H6            1 RES     
    4576 H6         -75.9210   -56.1014   161.0969 H6            1 RES     
    4577 H6         -76.2700   -57.7487   161.7321 H6            1 RES     
    4578 H6         -73.4948   -56.7703   160.7392 H6            1 RES     
    4579 H6         -73.8835   -58.3943   161.4353 H6            1 RES     
    4580 H6         -74.1398   -55.6773   162.8839 H6            1 RES     
    4581 H6         -74.6643   -57.2909   163.5317 H6            1 RES     
    4582 H6         -72.4499   -58.1900   163.4259 H6            1 RES     
    4583 H6         -71.7402   -56.6701   162.7815 H6            1 RES     
    4584 H6         -73.2430   -56.9547   165.4729 H6            1 RES     
    4585 H6         -71.4838   -57.1345   165.2931 H6            1 RES     
    4586 H6         -71.9879   -54.6481   164.0314 H6            1 RES     
    4587 H6         -71.0676   -54.9556   165.5171 H6            1 RES     
    4588 H6         -74.0184   -54.4523   165.3318 H6            1 RES     
    4589 H6         -73.2950   -55.8686   167.2724 H6            1 RES     
    4590 H6         -72.4434   -54.4916   167.9784 H6            1 RES     
    4591 H6         -74.7080   -53.3177   168.1846 H6            1 RES     
    4592 H6         -75.4239   -54.5896   167.1270 H6            1 RES     
    4593 H6         -74.3542   -55.1512   169.9516 H6            1 RES     
    4594 H6         -74.9268   -56.3697   168.7497 H6            1 RES     
    4595 H6         -76.6703   -54.1186   169.9201 H6            1 RES     
    4596 H6         -77.1332   -55.2179   168.5713 H6            1 RES     
    4597 H6         -76.8858   -57.2215   169.9810 H6            1 RES     
    4598 H6         -78.1154   -56.0660   170.5977 H6            1 RES     
    4599 H6         -76.5141   -55.2251   172.3100 H6            1 RES     
    4600 H6         -75.2649   -56.4061   171.7273 H6            1 RES     
    4601 H6         -76.8005   -57.0014   172.4489 H6            1 RES     
    4602 H6         -72.4000   -52.5455   164.7024 H6            1 RES     
    4603 H6         -71.7638   -52.7022   166.3684 H6            1 RES     
    4604 H6         -71.6022   -50.5936   165.7078 H6            1 RES     
    4605 H6         -72.8026   -49.3996   165.6343 H6            1 RES     
    4606 H6         -72.2246   -50.7842   168.3111 H6            1 RES     
    4607 H6         -74.1687   -49.2269   168.1820 H6            1 RES     
    4608 H6         -72.9496   -48.8082   169.4274 H6            1 RES     
    4609 H6         -72.0599   -46.9436   168.0678 H6            1 RES     
    4610 H6         -73.1111   -47.4060   166.7109 H6            1 RES     
    4611 H6         -74.1171   -45.5179   167.7219 H6            1 RES     
    4612 H6         -75.1269   -46.9220   168.1381 H6            1 RES     
    4613 H6         -74.1078   -46.9810   170.4358 H6            1 RES     
    4614 H6         -74.9226   -45.4310   170.0554 H6            1 RES     
    4615 H6         -71.8639   -45.8989   170.0454 H6            1 RES     
    4616 H6         -72.8344   -45.0501   171.2872 H6            1 RES     
    4617 H6         -73.5069   -43.3101   169.6087 H6            1 RES     
    4618 H6         -71.7200   -43.4177   169.8247 H6            1 RES     
    4619 H6         -72.4738   -44.1233   168.3621 H6            1 RES     
    4620 H6         -70.0360   -50.3625   167.7820 H6            1 RES     
    4621 H6         -70.5102   -49.0171   168.8620 H6            1 RES     
    4622 H6         -70.6823   -47.5848   166.6280 H6            1 RES     
    4623 H6         -70.0096   -48.9906   165.7927 H6            1 RES     
    4624 H6         -68.3433   -47.2706   166.3175 H6            1 RES     
    4625 H6         -68.7148   -47.3587   168.0754 H6            1 RES     
    4626 H6         -67.5254   -49.6762   166.3921 H6            1 RES     
    4627 H6         -67.8986   -49.7105   168.1551 H6            1 RES     
    4628 H6         -66.2554   -47.8878   168.5830 H6            1 RES     
    4629 H6         -65.5500   -49.3896   167.8845 H6            1 RES     
    4630 H6         -66.1784   -46.8244   166.2868 H6            1 RES     
    4631 H6         -65.4714   -48.3367   165.6119 H6            1 RES     
    4632 H6         -63.7946   -46.5455   166.0154 H6            1 RES     
    4633 H6         -64.2162   -46.4940   167.7640 H6            1 RES     
    4634 H6         -63.3682   -48.8519   168.0221 H6            1 RES     
    4635 H6         -62.1205   -47.7741   167.3203 H6            1 RES     
    4636 H6         -63.0173   -48.9107   166.2447 H6            1 RES     
    4637 C0         -79.0404   -62.4527   161.9014 C0            1 RES     
    4638 C0         -80.4592   -63.0175   161.9785 C0            1 RES     
    4639 C0         -81.2223   -62.3218   162.8554 C0            1 RES     
    4640 S1         -82.8049   -62.8614   162.9319 S1            1 RES     
    4641 C0         -82.5287   -64.0733   161.7669 C0            1 RES     
    4642 C0         -81.2034   -63.9860   161.3078 C0            1 RES     
    4643 C0         -80.4875   -61.2051   163.3409 C0            1 RES     
    4644 C0         -79.3010   -61.2169   162.7764 C0            1 RES     
    4645 C0         -78.5892   -59.9731   163.0045 C0            1 RES     
    4646 C0         -79.3480   -59.1133   163.7841 C0            1 RES     
    4647 S1         -80.9466   -59.7735   164.2988 S1            1 RES     
    4648 H2         -80.8447   -64.5702   160.4874 H2            1 RES     
    4649 H2         -77.6732   -59.6787   162.5219 H2            1 RES     
    4650 N3         -83.9473   -67.1926   160.2026 N3            1 RES     
    4651 C0         -83.0741   -66.2513   160.6618 C0            1 RES     
    4652 C0         -83.5232   -65.0619   161.2703 C0            1 RES     
    4653 C0         -84.9127   -64.8966   161.3931 C0            1 RES     
    4654 N3         -85.5126   -63.8108   161.9502 N3            1 RES     
    4655 S1         -87.1194   -64.1649   161.7839 S1            1 RES     
    4656 N3         -87.1262   -65.6385   161.0381 N3            1 RES     
    4657 C0         -85.7992   -65.8892   160.8961 C0            1 RES     
    4658 C0         -85.2961   -67.0390   160.3016 C0            1 RES     
    4659 H4         -82.0199   -66.4488   160.5803 H4            1 RES     
    4660 C5         -83.3172   -67.8004   154.7924 C5            1 RES     
    4661 C5         -83.0584   -66.4295   155.4192 C5            1 RES     
    4662 C5         -82.4236   -66.4989   156.8195 C5            1 RES     
    4663 C5         -81.0360   -67.1697   156.8501 C5            1 RES     
    4664 C5         -80.4590   -67.1454   158.2761 C5            1 RES     
    4665 C5         -79.1809   -67.9848   158.4142 C5            1 RES     
    4666 C5         -78.6526   -68.0242   159.8680 C5            1 RES     
    4667 C5         -77.8444   -66.7661   160.3141 C5            1 RES     
    4668 C5         -78.4280   -65.9454   161.5054 C5            1 RES     
    4669 C5         -78.5625   -66.7970   162.8015 C5            1 RES     
    4670 C5         -79.6336   -66.2449   163.7606 C5            1 RES     
    4671 C5         -80.1234   -67.3285   164.7450 C5            1 RES     
    4672 C5         -81.3814   -66.8612   165.4991 C5            1 RES     
    4673 C5         -82.0882   -67.9936   166.2656 C5            1 RES     
    4674 C5         -81.2639   -68.5694   167.4117 C5            1 RES     
    4675 C5         -77.5530   -64.6597   161.6658 C5            1 RES     
    4676 C0         -77.8961   -63.3757   162.5152 C0            1 RES     
    4677 C5         -76.5170   -62.5955   162.6506 C5            1 RES     
    4678 C5         -75.8121   -62.7489   164.0399 C5            1 RES     
    4679 C5         -76.3089   -61.7243   165.1126 C5            1 RES     
    4680 C5         -75.8059   -60.2727   164.9324 C5            1 RES     
    4681 C5         -76.4529   -59.2539   165.8881 C5            1 RES     
    4682 C5         -76.0248   -59.3651   167.3639 C5            1 RES     
    4683 C5         -74.5239   -59.1190   167.6300 C5            1 RES     
    4684 C5         -74.0450   -57.7307   167.1928 C5            1 RES     
    4685 C5         -74.2516   -62.8238   163.9477 C5            1 RES     
    4686 C5         -73.5340   -61.8008   163.0297 C5            1 RES     
    4687 C5         -71.9958   -61.8233   163.1787 C5            1 RES     
    4688 C5         -71.3490   -63.1818   162.8482 C5            1 RES     
    4689 C5         -69.8137   -63.1793   162.9928 C5            1 RES     
    4690 C5         -69.1021   -62.2884   161.9562 C5            1 RES     
    4691 C5         -67.5697   -62.2845   162.1019 C5            1 RES     
    4692 C5         -66.9242   -63.6489   161.8550 C5            1 RES     
    4693 H6         -82.3662   -68.3394   154.6065 H6            1 RES     
    4694 H6         -83.8280   -67.6671   153.8150 H6            1 RES     
    4695 H6         -83.9689   -68.4131   155.4510 H6            1 RES     
    4696 H6         -82.4132   -65.8309   154.7416 H6            1 RES     
    4697 H6         -84.0370   -65.9088   155.5143 H6            1 RES     
    4698 H6         -82.3300   -65.4586   157.2001 H6            1 RES     
    4699 H6         -83.1133   -67.0519   157.4948 H6            1 RES     
    4700 H6         -80.3389   -66.6475   156.1589 H6            1 RES     
    4701 H6         -81.1429   -68.2261   156.5257 H6            1 RES     
    4702 H6         -80.2771   -66.0948   158.5882 H6            1 RES     
    4703 H6         -81.2111   -67.6117   158.9422 H6            1 RES     
    4704 H6         -79.4587   -69.0250   158.1333 H6            1 RES     
    4705 H6         -78.3826   -67.6470   157.7189 H6            1 RES     
    4706 H6         -79.5015   -68.2720   160.5368 H6            1 RES     
    4707 H6         -77.9454   -68.8785   159.9284 H6            1 RES     
    4708 H6         -77.7673   -66.0951   159.4292 H6            1 RES     
    4709 H6         -76.8026   -67.0697   160.5554 H6            1 RES     
    4710 H6         -79.4141   -65.7257   161.1624 H6            1 RES     
    4711 H6         -78.9372   -67.7914   162.5042 H6            1 RES     
    4712 H6         -77.5868   -66.9789   163.3018 H6            1 RES     
    4713 H6         -79.2808   -65.3296   164.2811 H6            1 RES     
    4714 H6         -80.5191   -65.9813   163.1450 H6            1 RES     
    4715 H6         -79.3116   -67.6219   165.4446 H6            1 RES     
    4716 H6         -80.4187   -68.2228   164.1522 H6            1 RES     
    4717 H6         -81.1338   -66.0177   166.1777 H6            1 RES     
    4718 H6         -82.1197   -66.4975   164.7494 H6            1 RES     
    4719 H6         -82.3561   -68.8108   165.5592 H6            1 RES     
    4720 H6         -83.0332   -67.5894   166.6894 H6            1 RES     
    4721 H6         -81.0203   -67.7722   168.1447 H6            1 RES     
    4722 H6         -80.3287   -69.0324   167.0363 H6            1 RES     
    4723 H6         -81.8575   -69.3558   167.9258 H6            1 RES     
    4724 H6         -77.3597   -64.2539   160.6478 H6            1 RES     
    4725 H6         -76.5848   -65.0635   162.0438 H6            1 RES     
    4726 H6         -75.8267   -62.9885   161.8749 H6            1 RES     
    4727 H6         -76.5605   -61.5382   162.3547 H6            1 RES     
    4728 H6         -76.1056   -63.7494   164.4330 H6            1 RES     
    4729 H6         -77.4204   -61.7417   165.1126 H6            1 RES     
    4730 H6         -75.9696   -62.0663   166.1138 H6            1 RES     
    4731 H6         -74.7114   -60.2144   165.0628 H6            1 RES     
    4732 H6         -76.0357   -59.9444   163.9082 H6            1 RES     
    4733 H6         -76.2058   -58.2318   165.5321 H6            1 RES     
    4734 H6         -77.5554   -59.3528   165.8252 H6            1 RES     
    4735 H6         -76.3021   -60.3657   167.7553 H6            1 RES     
    4736 H6         -76.6011   -58.6088   167.9410 H6            1 RES     
    4737 H6         -73.9046   -59.8935   167.1332 H6            1 RES     
    4738 H6         -74.3540   -59.2082   168.7247 H6            1 RES     
    4739 H6         -74.6392   -56.9377   167.6949 H6            1 RES     
    4740 H6         -72.9778   -57.6017   167.4715 H6            1 RES     
    4741 H6         -74.1202   -57.6066   166.0931 H6            1 RES     
    4742 H6         -73.9982   -63.8246   163.5381 H6            1 RES     
    4743 H6         -73.8426   -62.7777   164.9806 H6            1 RES     
    4744 H6         -73.8410   -60.7666   163.2409 H6            1 RES     
    4745 H6         -73.7972   -61.9961   161.9709 H6            1 RES     
    4746 H6         -71.5984   -61.0463   162.4936 H6            1 RES     
    4747 H6         -71.7277   -61.5367   164.2195 H6            1 RES     
    4748 H6         -71.6234   -63.4966   161.8181 H6            1 RES     
    4749 H6         -71.7357   -63.9390   163.5618 H6            1 RES     
    4750 H6         -69.5379   -62.8604   164.0221 H6            1 RES     
    4751 H6         -69.4762   -64.2269   162.8517 H6            1 RES     
    4752 H6         -69.4351   -61.2382   162.0811 H6            1 RES     
    4753 H6         -69.3721   -62.6217   160.9303 H6            1 RES     
    4754 H6         -67.1568   -61.5743   161.3526 H6            1 RES     
    4755 H6         -67.2879   -61.9203   163.1136 H6            1 RES     
    4756 H6         -67.2433   -64.3892   162.6160 H6            1 RES     
    4757 H6         -65.8200   -63.5497   161.9228 H6            1 RES     
    4758 H6         -67.1846   -64.0215   160.8419 H6            1 RES     
    4759 C0         -87.2351   -70.6216   157.1803 C0            1 RES     
    4760 C0         -88.7352   -70.7614   157.4410 C0            1 RES     
    4761 C0         -89.0932   -70.1677   158.6049 C0            1 RES     
    4762 S1         -90.7379   -70.2382   158.9077 S1            1 RES     
    4763 C0         -91.0459   -71.0825   157.4605 C0            1 RES     
    4764 C0         -89.8449   -71.2410   156.7481 C0            1 RES     
    4765 C0         -87.9691   -69.4957   159.1594 C0            1 RES     
    4766 C0         -86.9453   -69.6749   158.3554 C0            1 RES     
    4767 C0         -85.8365   -68.8051   158.7013 C0            1 RES     
    4768 C0         -86.1497   -68.0341   159.8104 C0            1 RES     
    4769 S1         -87.7879   -68.3385   160.5032 S1            1 RES     
    4770 H2         -89.8192   -71.6358   155.7548 H2            1 RES     
    4771 H2         -84.9520   -68.6524   158.1072 H2            1 RES     
    4772 N3         -93.6238   -73.0767   155.5719 N3            1 RES     
    4773 C0         -92.4325   -72.5963   156.0293 C0            1 RES     
    4774 C0         -92.3713   -71.5610   156.9838 C0            1 RES     
    4775 C0         -93.5954   -71.0552   157.4517 C0            1 RES     
    4776 N3         -93.7165   -70.0572   158.3673 N3            1 RES     
    4777 S1         -95.3562   -69.8803   158.4893 S1            1 RES     
    4778 N3         -95.9563   -71.0070   157.4412 N3            1 RES     
    4779 C0         -94.8215   -71.5676   156.9494 C0            1 RES     
    4780 C0         -94.8171   -72.5860   156.0052 C0            1 RES     
    4781 H4         -91.5260   -73.0494   155.6686 H4            1 RES     
    4782 C5         -93.9963   -72.2262   150.1705 C5            1 RES     
    4783 C5         -93.2119   -71.2295   151.0253 C5            1 RES     
    4784 C5         -92.4465   -71.8812   152.1906 C5            1 RES     
    4785 C5         -91.3705   -72.8933   151.7503 C5            1 RES     
    4786 C5         -90.6242   -73.4507   152.9748 C5            1 RES     
    4787 C5         -89.6912   -74.6177   152.6215 C5            1 RES     
    4788 C5         -89.0076   -75.2276   153.8685 C5            1 RES     
    4789 C5         -87.7735   -74.4357   154.4022 C5            1 RES     
    4790 C5         -87.8786   -73.8701   155.8521 C5            1 RES     
    4791 C5         -88.1049   -74.9898   156.9095 C5            1 RES     
    4792 C5         -88.7864   -74.4647   158.1869 C5            1 RES     
    4793 C5         -89.4649   -75.6055   158.9753 C5            1 RES     
    4794 C5         -90.3776   -75.0452   160.0812 C5            1 RES     
    4795 C5         -91.3053   -76.1057   160.7010 C5            1 RES     
    4796 C5         -90.5668   -77.1992   161.4648 C5            1 RES     
    4797 C5         -86.6131   -72.9880   156.1070 C5            1 RES     
    4798 C0         -86.3879   -71.9665   157.2876 C0            1 RES     
    4799 C5         -84.8236   -71.6809   157.2873 C5            1 RES     
    4800 C5         -84.0221   -72.4259   158.4068 C5            1 RES     
    4801 C5         -83.9951   -71.6637   159.7726 C5            1 RES     
    4802 C5         -83.0693   -70.4257   159.8279 C5            1 RES     
    4803 C5         -83.2008   -69.5923   161.1156 C5            1 RES     
    4804 C5         -82.6314   -70.2462   162.3891 C5            1 RES     
    4805 C5         -81.1123   -70.5211   162.3602 C5            1 RES     
    4806 C5         -80.2661   -69.2590   162.1630 C5            1 RES     
    4807 C5         -82.6042   -72.9062   157.9506 C5            1 RES     
    4808 C5         -81.7239   -71.9044   157.1595 C5            1 RES     
    4809 C5         -80.2756   -72.4010   156.9487 C5            1 RES     
    4810 C5         -80.1695   -73.7278   156.1730 C5            1 RES     
    4811 C5         -78.7162   -74.1995   155.9646 C5            1 RES     
    4812 C5         -77.9020   -73.2821   155.0318 C5            1 RES     
    4813 C5         -76.4508   -73.7521   154.8254 C5            1 RES     
    4814 C5         -76.3362   -75.1083   154.1278 C5            1 RES     
    4815 H6         -93.3141   -72.9318   149.6545 H6            1 RES     
    4816 H6         -94.5656   -71.6747   149.3922 H6            1 RES     
    4817 H6         -94.7152   -72.7956   150.7972 H6            1 RES     
    4818 H6         -92.5065   -70.6655   150.3788 H6            1 RES     
    4819 H6         -93.9387   -70.5062   151.4573 H6            1 RES     
    4820 H6         -91.9606   -71.0681   152.7725 H6            1 RES     
    4821 H6         -93.1787   -72.3902   152.8556 H6            1 RES     
    4822 H6         -90.6438   -72.4099   151.0615 H6            1 RES     
    4823 H6         -91.8663   -73.7339   151.2208 H6            1 RES     
    4824 H6         -90.0621   -72.6330   153.4744 H6            1 RES     
    4825 H6         -91.3872   -73.8603   153.6654 H6            1 RES     
    4826 H6         -90.3350   -75.4081   152.1754 H6            1 RES     
    4827 H6         -88.9319   -74.3299   151.8629 H6            1 RES     
    4828 H6         -89.7880   -75.4112   154.6343 H6            1 RES     
    4829 H6         -88.6229   -76.2250   153.5667 H6            1 RES     
    4830 H6         -87.6030   -73.5851   153.7045 H6            1 RES     
    4831 H6         -86.8687   -75.0767   154.3248 H6            1 RES     
    4832 H6         -88.7736   -73.2916   155.8011 H6            1 RES     
    4833 H6         -88.8263   -75.7063   156.4805 H6            1 RES     
    4834 H6         -87.1850   -75.5769   157.1205 H6            1 RES     
    4835 H6         -88.0806   -73.8797   158.8136 H6            1 RES     
    4836 H6         -89.6112   -73.7947   157.8657 H6            1 RES     
    4837 H6         -88.7070   -76.3066   159.3857 H6            1 RES     
    4838 H6         -90.1203   -76.1663   158.2722 H6            1 RES     
    4839 H6         -89.7716   -74.5426   160.8643 H6            1 RES     
    4840 H6         -91.0507   -74.2859   159.6233 H6            1 RES     
    4841 H6         -91.9256   -76.5706   159.9022 H6            1 RES     
    4842 H6         -91.9933   -75.5946   161.4090 H6            1 RES     
    4843 H6         -89.9722   -76.7536   162.2894 H6            1 RES     
    4844 H6         -89.9007   -77.7754   160.7910 H6            1 RES     
    4845 H6         -91.3094   -77.9014   161.9012 H6            1 RES     
    4846 H6         -86.4409   -72.3735   155.1953 H6            1 RES     
    4847 H6         -85.7910   -73.7399   156.1521 H6            1 RES     
    4848 H6         -84.4188   -72.0072   156.3063 H6            1 RES     
    4849 H6         -84.5547   -70.6158   157.2641 H6            1 RES     
    4850 H6         -84.5728   -73.3729   158.6111 H6            1 RES     
    4851 H6         -85.0377   -71.3671   160.0189 H6            1 RES     
    4852 H6         -83.6517   -72.3646   160.5633 H6            1 RES     
    4853 H6         -82.0107   -70.7184   159.7183 H6            1 RES     
    4854 H6         -83.3183   -69.7614   158.9875 H6            1 RES     
    4855 H6         -82.6809   -68.6234   160.9619 H6            1 RES     
    4856 H6         -84.2708   -69.3543   161.2814 H6            1 RES     
    4857 H6         -83.1673   -71.1972   162.5881 H6            1 RES     
    4858 H6         -82.8371   -69.5617   163.2415 H6            1 RES     
    4859 H6         -80.8613   -71.2578   161.5699 H6            1 RES     
    4860 H6         -80.8300   -70.9708   163.3365 H6            1 RES     
    4861 H6         -80.4868   -68.5142   162.9570 H6            1 RES     
    4862 H6         -79.1886   -69.5228   162.2164 H6            1 RES     
    4863 H6         -80.4492   -68.8027   161.1687 H6            1 RES     
    4864 H6         -82.7574   -73.7722   157.2723 H6            1 RES     
    4865 H6         -82.0625   -73.2814   158.8462 H6            1 RES     
    4866 H6         -81.6375   -70.9346   157.6700 H6            1 RES     
    4867 H6         -82.1827   -71.6990   156.1717 H6            1 RES     
    4868 H6         -79.7431   -71.6022   156.3926 H6            1 RES     
    4869 H6         -79.7845   -72.5191   157.9397 H6            1 RES     
    4870 H6         -80.6744   -73.6370   155.1870 H6            1 RES     
    4871 H6         -80.6815   -74.5199   156.7583 H6            1 RES     
    4872 H6         -78.2088   -74.2868   156.9505 H6            1 RES     
    4873 H6         -78.7689   -75.2106   155.5104 H6            1 RES     
    4874 H6         -77.8466   -72.2652   155.4702 H6            1 RES     
    4875 H6         -78.4084   -73.2106   154.0444 H6            1 RES     
    4876 H6         -75.9350   -72.9998   154.1894 H6            1 RES     
    4877 H6         -75.9253   -73.7945   155.8039 H6            1 RES     
    4878 H6         -76.7728   -75.9179   154.7465 H6            1 RES     
    4879 H6         -75.2637   -75.3479   153.9663 H6            1 RES     
    4880 H6         -76.8448   -75.0792   153.1411 H6            1 RES     
    4881 C0         -98.2526   -74.4017   152.6529 C0            1 RES     
    4882 C0         -99.6618   -74.1839   153.2048 C0            1 RES     
    4883 C0         -99.6355   -73.8812   154.5249 C0            1 RES     
    4884 S1        -101.1507   -73.5718   155.1654 S1            1 RES     
    4885 C0        -101.9211   -73.8333   153.6687 C0            1 RES     
    4886 C0        -100.9533   -74.1075   152.6872 C0            1 RES     
    4887 C0         -98.2861   -73.7455   154.9531 C0            1 RES     
    4888 C0         -97.5033   -73.9618   153.9202 C0            1 RES     
    4889 C0         -96.1318   -73.5799   154.2007 C0            1 RES     
    4890 C0         -96.0125   -73.1117   155.5005 C0            1 RES     
    4891 S1         -97.5446   -73.1320   156.4537 S1            1 RES     
    4892 H2        -101.1997   -74.1849   151.6498 H2            1 RES     
    4893 H2         -95.3393   -73.5152   153.4752 H2            1 RES     
    4894 N3        -105.2526   -74.3784   151.9972 N3            1 RES     
    4895 C0        -103.9177   -74.4082   152.2738 C0            1 RES     
    4896 C0        -103.3831   -73.7586   153.4046 C0            1 RES     
    4897 C0        -104.2916   -73.0889   154.2410 C0            1 RES     
    4898 N3        -103.9449   -72.4107   155.3675 N3            1 RES     
    4899 S1        -105.3987   -71.8236   155.8936 S1            1 RES     
    4900 N3        -106.4793   -72.3779   154.7742 N3            1 RES     
    4901 C0        -105.6758   -73.0655   153.9224 C0            1 RES     
    4902 C0        -106.1422   -73.7212   152.7906 C0            1 RES     
    4903 H4        -103.2730   -74.9716   151.6225 H4            1 RES     
    4904 C5        -106.0751   -71.9158   147.1707 C5            1 RES     
    4905 C5        -104.8928   -71.4755   148.0353 C5            1 RES     
    4906 C5        -104.2316   -72.6273   148.8129 C5            1 RES     
    4907 C5        -103.6255   -73.7261   147.9177 C5            1 RES     
    4908 C5        -102.9427   -74.8037   148.7776 C5            1 RES     
    4909 C5        -102.5092   -76.0292   147.9607 C5            1 RES     
    4910 C5        -101.8992   -77.1438   148.8438 C5            1 RES     
    4911 C5        -100.4103   -76.9232   149.2556 C5            1 RES     
    4912 C5        -100.1172   -76.8011   150.7828 C5            1 RES     
    4913 C5        -100.5518   -78.0702   151.5724 C5            1 RES     
    4914 C5        -100.8341   -77.7725   153.0569 C5            1 RES     
    4915 C5        -101.7351   -78.8549   153.6891 C5            1 RES     
    4916 C5        -102.2456   -78.4099   155.0715 C5            1 RES     
    4917 C5        -103.3760   -79.2996   155.6191 C5            1 RES     
    4918 C5        -102.9429   -80.7302   155.9199 C5            1 RES     
    4919 C5         -98.6083   -76.4252   150.9448 C5            1 RES     
    4920 C0         -97.8937   -75.9005   152.2494 C0            1 RES     
    4921 C5         -96.3396   -76.0793   151.9635 C5            1 RES     
    4922 C5         -95.6823   -77.3131   152.6678 C5            1 RES     
    4923 C5         -95.2126   -77.0238   154.1317 C5            1 RES     
    4924 C5         -93.9304   -76.1688   154.2645 C5            1 RES     
    4925 C5         -93.5958   -75.7470   155.7068 C5            1 RES     
    4926 C5         -93.1032   -76.8774   156.6304 C5            1 RES     
    4927 C5         -91.7814   -77.5474   156.1967 C5            1 RES     
    4928 C5         -90.6008   -76.5741   156.1143 C5            1 RES     
    4929 C5         -94.5830   -78.0173   151.8047 C5            1 RES     
    4930 C5         -93.5402   -77.1177   151.0921 C5            1 RES     
    4931 C5         -92.3836   -77.9172   150.4505 C5            1 RES     
    4932 C5         -92.8337   -78.9326   149.3830 C5            1 RES     
    4933 C5         -91.6639   -79.7115   148.7483 C5            1 RES     
    4934 C5         -90.7306   -78.8289   147.8968 C5            1 RES     
    4935 C5         -89.5618   -79.6062   147.2649 C5            1 RES     
    4936 C5         -90.0028   -80.6738   146.2625 C5            1 RES     
    4937 H6        -105.7452   -72.6014   146.3641 H6            1 RES     
    4938 H6        -106.5323   -71.0239   146.6915 H6            1 RES     
    4939 H6        -106.8468   -72.4174   147.7924 H6            1 RES     
    4940 H6        -104.1381   -70.9692   147.3966 H6            1 RES     
    4941 H6        -105.2701   -70.7365   148.7765 H6            1 RES     
    4942 H6        -103.4269   -72.1911   149.4437 H6            1 RES     
    4943 H6        -104.9904   -73.0813   149.4880 H6            1 RES     
    4944 H6        -102.8838   -73.2871   147.2153 H6            1 RES     
    4945 H6        -104.4413   -74.2000   147.3322 H6            1 RES     
    4946 H6        -102.0769   -74.3606   149.3146 H6            1 RES     
    4947 H6        -103.6935   -75.1656   149.5071 H6            1 RES     
    4948 H6        -103.4347   -76.4400   147.4992 H6            1 RES     
    4949 H6        -101.8117   -75.7578   147.1393 H6            1 RES     
    4950 H6        -102.5807   -77.3162   149.7011 H6            1 RES     
    4951 H6        -101.9136   -78.0752   148.2387 H6            1 RES     
    4952 H6        -100.0667   -75.9896   148.7559 H6            1 RES     
    4953 H6         -99.7898   -77.7408   148.8289 H6            1 RES     
    4954 H6        -100.7673   -76.0057   151.0713 H6            1 RES     
    4955 H6        -101.5226   -78.3966   151.1618 H6            1 RES     
    4956 H6         -99.8589   -78.9272   151.4277 H6            1 RES     
    4957 H6         -99.8936   -77.6196   153.6273 H6            1 RES     
    4958 H6        -101.4262   -76.8341   153.0953 H6            1 RES     
    4959 H6        -101.2032   -79.8289   153.7427 H6            1 RES     
    4960 H6        -102.6312   -78.9775   153.0407 H6            1 RES     
    4961 H6        -101.4035   -78.3500   155.7931 H6            1 RES     
    4962 H6        -102.6856   -77.3926   154.9674 H6            1 RES     
    4963 H6        -104.2209   -79.3163   154.8947 H6            1 RES     
    4964 H6        -103.7489   -78.8463   156.5632 H6            1 RES     
    4965 H6        -102.1248   -80.7315   156.6700 H6            1 RES     
    4966 H6        -102.6073   -81.2470   154.9979 H6            1 RES     
    4967 H6        -103.8075   -81.2909   156.3359 H6            1 RES     
    4968 H6         -98.3715   -75.6453   150.1872 H6            1 RES     
    4969 H6         -98.0846   -77.3569   150.6267 H6            1 RES     
    4970 H6         -96.2079   -76.2042   150.8681 H6            1 RES     
    4971 H6         -95.7385   -75.1746   152.1297 H6            1 RES     
    4972 H6         -96.4816   -78.0835   152.7639 H6            1 RES     
    4973 H6         -96.0522   -76.5316   154.6688 H6            1 RES     
    4974 H6         -95.0141   -77.9924   154.6385 H6            1 RES     
    4975 H6         -93.0554   -76.7019   153.8540 H6            1 RES     
    4976 H6         -94.0600   -75.2457   153.6809 H6            1 RES     
    4977 H6         -92.8108   -74.9627   155.6706 H6            1 RES     
    4978 H6         -94.4918   -75.2771   156.1602 H6            1 RES     
    4979 H6         -93.8909   -77.6541   156.7173 H6            1 RES     
    4980 H6         -92.9484   -76.4434   157.6429 H6            1 RES     
    4981 H6         -91.9026   -78.0600   155.2206 H6            1 RES     
    4982 H6         -91.5304   -78.3235   156.9516 H6            1 RES     
    4983 H6         -90.4482   -76.0636   157.0891 H6            1 RES     
    4984 H6         -89.6758   -77.1338   155.8605 H6            1 RES     
    4985 H6         -90.7596   -75.8146   155.3216 H6            1 RES     
    4986 H6         -95.1085   -78.5672   150.9954 H6            1 RES     
    4987 H6         -94.0766   -78.7746   152.4422 H6            1 RES     
    4988 H6         -93.0661   -76.4051   151.7820 H6            1 RES     
    4989 H6         -94.0386   -76.5119   150.3091 H6            1 RES     
    4990 H6         -91.6997   -77.1741   149.9911 H6            1 RES     
    4991 H6         -91.8257   -78.4532   151.2496 H6            1 RES     
    4992 H6         -93.4128   -78.4191   148.5853 H6            1 RES     
    4993 H6         -93.4921   -79.6839   149.8670 H6            1 RES     
    4994 H6         -91.0812   -80.2224   149.5462 H6            1 RES     
    4995 H6         -92.1123   -80.4878   148.0944 H6            1 RES     
    4996 H6         -90.2799   -78.0434   148.5366 H6            1 RES     
    4997 H6         -91.3177   -78.3322   147.0937 H6            1 RES     
    4998 H6         -88.9201   -78.8775   146.7229 H6            1 RES     
    4999 H6         -88.9484   -80.0790   148.0622 H6            1 RES     
    5000 H6         -90.5921   -81.4720   146.7570 H6            1 RES     
    5001 H6         -89.1045   -81.1471   145.8122 H6            1 RES     
    5002 H6         -90.6059   -80.2154   145.4506 H6            1 RES     
    5003 C0        -110.4195   -73.4336   149.9694 C0            1 RES     
    5004 C0        -111.5844   -72.9998   150.8598 C0            1 RES     
    5005 C0        -111.2743   -73.1168   152.1733 C0            1 RES     
    5006 S1        -112.4953   -72.5954   153.1926 S1            1 RES     
    5007 C0        -113.5106   -72.1798   151.8894 C0            1 RES     
    5008 C0        -112.8364   -72.4153   150.6790 C0            1 RES     
    5009 C0        -109.9105   -73.4975   152.3060 C0            1 RES     
    5010 C0        -109.3969   -73.6131   151.1021 C0            1 RES     
    5011 C0        -107.9514   -73.7318   151.1477 C0            1 RES     
    5012 C0        -107.5025   -73.7178   152.4596 C0            1 RES     
    5013 S1        -108.8048   -73.5845   153.7016 S1            1 RES     
    5014 H2        -113.2373   -72.1132   149.7351 H2            1 RES     
    5015 H2        -107.2923   -73.6832   150.2981 H2            1 RES     
    5016 N3        -117.0335   -71.2520   150.9315 N3            1 RES     
    5017 C0        -115.7594   -71.7356   150.8855 C0            1 RES     
    5018 C0        -114.8866   -71.6231   151.9864 C0            1 RES     
    5019 C0        -115.3946   -71.0004   153.1386 C0            1 RES     
    5020 N3        -114.6881   -70.8077   154.2844 N3            1 RES     
    5021 S1        -115.7756   -70.0163   155.2466 S1            1 RES     
    5022 N3        -117.1246   -69.8914   154.3018 N3            1 RES     
    5023 C0        -116.7227   -70.4965   153.1546 C0            1 RES     
    5024 C0        -117.5340   -70.6334   152.0358 C0            1 RES     
    5025 H4        -115.4364   -72.2413   149.9927 H4            1 RES     
    5026 C5        -117.6602   -67.3577   147.1266 C5            1 RES     
    5027 C5        -116.2899   -67.5408   147.7809 C5            1 RES     
    5028 C5        -115.9464   -69.0070   148.0985 C5            1 RES     
    5029 C5        -115.8713   -69.9196   146.8586 C5            1 RES     
    5030 C5        -115.4714   -71.3482   147.2665 C5            1 RES     
    5031 C5        -115.5883   -72.3511   146.1099 C5            1 RES     
    5032 C5        -115.2653   -73.7997   146.5474 C5            1 RES     
    5033 C5        -113.7455   -74.1372   146.6531 C5            1 RES     
    5034 C5        -113.2175   -74.5549   148.0602 C5            1 RES     
    5035 C5        -113.9333   -75.8237   148.6086 C5            1 RES     
    5036 C5        -113.8898   -75.9066   150.1459 C5            1 RES     
    5037 C5        -115.0009   -76.8276   150.6940 C5            1 RES     
    5038 C5        -115.1355   -76.6818   152.2206 C5            1 RES     
    5039 C5        -116.4086   -77.3374   152.7854 C5            1 RES     
    5040 C5        -116.4371   -78.8546   152.6382 C5            1 RES     
    5041 C5        -111.6624   -74.6832   147.9613 C5            1 RES     
    5042 C0        -110.6387   -74.7863   149.1569 C0            1 RES     
    5043 C5        -109.2884   -75.3030   148.4946 C5            1 RES     
    5044 C5        -108.9860   -76.8216   148.7246 C5            1 RES     
    5045 C5        -108.2466   -77.1176   150.0710 C5            1 RES     
    5046 C5        -106.7481   -76.7357   150.1075 C5            1 RES     
    5047 C5        -106.0938   -76.8662   151.4949 C5            1 RES     
    5048 C5        -105.8799   -78.3082   151.9936 C5            1 RES     
    5049 C5        -104.9301   -79.1652   151.1291 C5            1 RES     
    5050 C5        -103.5173   -78.5836   151.0125 C5            1 RES     
    5051 C5        -108.3153   -77.5217   147.4961 C5            1 RES     
    5052 C5        -107.1439   -76.7842   146.7972 C5            1 RES     
    5053 C5        -106.4203   -77.6524   145.7431 C5            1 RES     
    5054 C5        -107.3269   -78.1415   144.5976 C5            1 RES     
    5055 C5        -106.5830   -78.9965   143.5518 C5            1 RES     
    5056 C5        -105.5389   -78.2032   142.7423 C5            1 RES     
    5057 C5        -104.7952   -79.0573   141.6997 C5            1 RES     
    5058 C5        -105.7015   -79.6157   140.6015 C5            1 RES     
    5059 H6        -117.6931   -67.8411   146.1293 H6            1 RES     
    5060 H6        -117.8578   -66.2738   146.9847 H6            1 RES     
    5061 H6        -118.4594   -67.7811   147.7714 H6            1 RES     
    5062 H6        -115.5075   -67.1034   147.1250 H6            1 RES     
    5063 H6        -116.2927   -66.9762   148.7396 H6            1 RES     
    5064 H6        -114.9626   -69.0191   148.6158 H6            1 RES     
    5065 H6        -116.7103   -69.4060   148.8020 H6            1 RES     
    5066 H6        -115.1321   -69.5214   146.1296 H6            1 RES     
    5067 H6        -116.8716   -69.9520   146.3778 H6            1 RES     
    5068 H6        -114.4414   -71.3438   147.6829 H6            1 RES     
    5069 H6        -116.1896   -71.6812   148.0411 H6            1 RES     
    5070 H6        -116.6526   -72.3312   145.7859 H6            1 RES     
    5071 H6        -114.9627   -72.0587   145.2393 H6            1 RES     
    5072 H6        -115.8381   -74.0165   147.4717 H6            1 RES     
    5073 H6        -115.6728   -74.4698   145.7609 H6            1 RES     
    5074 H6        -113.1852   -73.2343   146.3211 H6            1 RES     
    5075 H6        -113.4978   -74.9341   145.9188 H6            1 RES     
    5076 H6        -113.5195   -73.7296   148.6653 H6            1 RES     
    5077 H6        -115.0049   -75.7289   148.3626 H6            1 RES     
    5078 H6        -113.5917   -76.7594   148.1155 H6            1 RES     
    5079 H6        -112.8817   -76.1983   150.5092 H6            1 RES     
    5080 H6        -114.1252   -74.8938   150.5348 H6            1 RES     
    5081 H6        -114.8205   -77.8830   150.3975 H6            1 RES     
    5082 H6        -115.9684   -76.4978   150.2539 H6            1 RES     
    5083 H6        -114.2290   -77.0751   152.7274 H6            1 RES     
    5084 H6        -115.2230   -75.5979   152.4588 H6            1 RES     
    5085 H6        -117.3038   -76.9031   152.2866 H6            1 RES     
    5086 H6        -116.4735   -77.0944   153.8682 H6            1 RES     
    5087 H6        -115.5692   -79.3053   153.1631 H6            1 RES     
    5088 H6        -116.4249   -79.1515   151.5698 H6            1 RES     
    5089 H6        -117.3715   -79.2456   153.0955 H6            1 RES     
    5090 H6        -111.2889   -73.8152   147.3735 H6            1 RES     
    5091 H6        -111.5277   -75.5888   147.3248 H6            1 RES     
    5092 H6        -109.3606   -75.1337   147.3996 H6            1 RES     
    5093 H6        -108.4042   -74.6939   148.7277 H6            1 RES     
    5094 H6        -109.9739   -77.3290   148.8157 H6            1 RES     
    5095 H6        -108.7911   -76.5888   150.8831 H6            1 RES     
    5096 H6        -108.3118   -78.2070   150.2795 H6            1 RES     
    5097 H6        -106.1664   -77.3488   149.3976 H6            1 RES     
    5098 H6        -106.6445   -75.6847   149.8002 H6            1 RES     
    5099 H6        -105.1063   -76.3596   151.4670 H6            1 RES     
    5100 H6        -106.7101   -76.3175   152.2354 H6            1 RES     
    5101 H6        -106.8604   -78.8220   152.0717 H6            1 RES     
    5102 H6        -105.4495   -78.2514   153.0177 H6            1 RES     
    5103 H6        -105.3502   -79.3140   150.1133 H6            1 RES     
    5104 H6        -104.8477   -80.1660   151.6053 H6            1 RES     
    5105 H6        -103.0689   -78.4452   152.0193 H6            1 RES     
    5106 H6        -102.8758   -79.2810   150.4333 H6            1 RES     
    5107 H6        -103.5245   -77.6129   150.4759 H6            1 RES     
    5108 H6        -109.1015   -77.6397   146.7205 H6            1 RES     
    5109 H6        -108.0049   -78.5428   147.8082 H6            1 RES     
    5110 H6        -106.3684   -76.4681   147.5094 H6            1 RES     
    5111 H6        -107.5175   -75.8613   146.3103 H6            1 RES     
    5112 H6        -105.6001   -77.0312   145.3280 H6            1 RES     
    5113 H6        -105.9656   -78.5330   146.2481 H6            1 RES     
    5114 H6        -107.8084   -77.2759   144.0934 H6            1 RES     
    5115 H6        -108.1226   -78.7846   145.0282 H6            1 RES     
    5116 H6        -106.0973   -79.8609   144.0560 H6            1 RES     
    5117 H6        -107.3507   -79.3887   142.8530 H6            1 RES     
    5118 H6        -104.7682   -77.7993   143.4294 H6            1 RES     
    5119 H6        -106.0343   -77.3491   142.2308 H6            1 RES     
    5120 H6        -104.0308   -78.4132   141.2127 H6            1 RES     
    5121 H6        -104.2682   -79.8953   142.2053 H6            1 RES     
    5122 H6        -106.4467   -80.3242   141.0157 H6            1 RES     
    5123 H6        -105.0838   -80.1691   139.8627 H6            1 RES     
    5124 H6        -106.2258   -78.7896   140.0765 H6            1 RES     
    5125 C0        -121.8242   -68.3423   150.3981 C0            1 RES     
    5126 C0        -122.6421   -67.8788   151.6040 C0            1 RES     
    5127 C0        -122.2075   -68.4573   152.7492 C0            1 RES     
    5128 S1        -123.0304   -67.9357   154.1102 S1            1 RES     
    5129 C0        -124.0223   -66.8890   153.2033 C0            1 RES     
    5130 C0        -123.6413   -66.9397   151.8515 C0            1 RES     
    5131 C0        -121.0430   -69.2276   152.4786 C0            1 RES     
    5132 C0        -120.7710   -69.1253   151.1972 C0            1 RES     
    5133 C0        -119.4556   -69.6536   150.8870 C0            1 RES     
    5134 C0        -118.8483   -70.1510   152.0301 C0            1 RES     
    5135 S1        -119.8447   -70.0264   153.5293 S1            1 RES     
    5136 H2        -124.0473   -66.2745   151.1196 H2            1 RES     
    5137 H2        -118.9438   -69.5459   149.9462 H2            1 RES     
    5138 N3        -127.1350   -64.7702   153.3075 N3            1 RES     
    5139 C0        -126.1135   -65.5569   152.8640 C0            1 RES     
    5140 C0        -125.1076   -66.0217   153.7351 C0            1 RES     
    5141 C0        -125.2132   -65.6469   155.0848 C0            1 RES     
    5142 N3        -124.3296   -66.0047   156.0545 N3            1 RES     
    5143 S1        -124.9465   -65.2572   157.3944 S1            1 RES     
    5144 N3        -126.2959   -64.4872   156.8338 N3            1 RES     
    5145 C0        -126.2826   -64.8176   155.5167 C0            1 RES     
    5146 C0        -127.2418   -64.3872   154.6093 C0            1 RES     
    5147 H4        -126.1051   -65.8486   151.8286 H4            1 RES     
    5148 C5        -126.9606   -59.9213   150.7592 C5            1 RES     
    5149 C5        -125.6513   -60.6654   151.0266 C5            1 RES     
    5150 C5        -125.7730   -62.1949   150.9072 C5            1 RES     
    5151 C5        -126.1797   -62.6873   149.5043 C5            1 RES     
    5152 C5        -126.2236   -64.2248   149.4665 C5            1 RES     
    5153 C5        -126.8277   -64.7700   148.1646 C5            1 RES     
    5154 C5        -126.9458   -66.3128   148.1673 C5            1 RES     
    5155 C5        -125.6253   -67.0796   147.8461 C5            1 RES     
    5156 C5        -125.0741   -68.0216   148.9605 C5            1 RES     
    5157 C5        -126.0861   -69.1404   149.3442 C5            1 RES     
    5158 C5        -125.8574   -69.6783   150.7691 C5            1 RES     
    5159 C5        -127.1227   -70.3679   151.3228 C5            1 RES     
    5160 C5        -126.9859   -70.6436   152.8311 C5            1 RES     
    5161 C5        -128.3118   -71.0500   153.4990 C5            1 RES     
    5162 C5        -128.8627   -72.3856   153.0119 C5            1 RES     
    5163 C5        -123.6799   -68.5472   148.4868 C5            1 RES     
    5164 C0        -122.5916   -69.2792   149.3629 C0            1 RES     
    5165 C5        -121.5963   -69.9372   148.3116 C5            1 RES     
    5166 C5        -121.7860   -71.4775   148.1064 C5            1 RES     
    5167 C5        -121.0057   -72.3500   149.1443 C5            1 RES     
    5168 C5        -119.4760   -72.4330   148.9304 C5            1 RES     
    5169 C5        -118.7145   -73.1423   150.0649 C5            1 RES     
    5170 C5        -118.9236   -74.6662   150.1516 C5            1 RES     
    5171 C5        -118.4432   -75.4636   148.9198 C5            1 RES     
    5172 C5        -116.9486   -75.2952   148.6271 C5            1 RES     
    5173 C5        -121.5649   -71.9465   146.6298 C5            1 RES     
    5174 C5        -120.3254   -71.3974   145.8771 C5            1 RES     
    5175 C5        -120.0863   -72.0858   144.5142 C5            1 RES     
    5176 C5        -121.2550   -71.9427   143.5207 C5            1 RES     
    5177 C5        -120.9915   -72.6273   142.1643 C5            1 RES     
    5178 C5        -119.8677   -71.9589   141.3486 C5            1 RES     
    5179 C5        -119.6036   -72.6436   139.9955 C5            1 RES     
    5180 C5        -120.7883   -72.5778   139.0304 C5            1 RES     
    5181 H6        -127.2916   -60.0620   149.7103 H6            1 RES     
    5182 H6        -126.8051   -58.8335   150.9226 H6            1 RES     
    5183 H6        -127.7562   -60.2722   151.4502 H6            1 RES     
    5184 H6        -124.8683   -60.2937   150.3321 H6            1 RES     
    5185 H6        -125.3322   -60.4292   152.0660 H6            1 RES     
    5186 H6        -124.7868   -62.6341   151.1721 H6            1 RES     
    5187 H6        -126.5194   -62.5507   151.6515 H6            1 RES     
    5188 H6        -125.4602   -62.3179   148.7413 H6            1 RES     
    5189 H6        -127.1910   -62.2950   149.2674 H6            1 RES     
    5190 H6        -125.2029   -64.6323   149.6293 H6            1 RES     
    5191 H6        -126.8955   -64.5539   150.2832 H6            1 RES     
    5192 H6        -127.8594   -64.3578   148.1025 H6            1 RES     
    5193 H6        -126.2692   -64.4240   147.2684 H6            1 RES     
    5194 H6        -127.4225   -66.6204   149.1199 H6            1 RES     
    5195 H6        -127.6586   -66.5806   147.3586 H6            1 RES     
    5196 H6        -124.8495   -66.3148   147.6167 H6            1 RES     
    5197 H6        -125.7617   -67.6627   146.9096 H6            1 RES     
    5198 H6        -124.9970   -67.3595   149.7937 H6            1 RES     
    5199 H6        -127.0887   -68.6805   149.3751 H6            1 RES     
    5200 H6        -126.1471   -69.9473   148.5823 H6            1 RES     
    5201 H6        -124.9630   -70.3347   150.8176 H6            1 RES     
    5202 H6        -125.6864   -68.8002   151.4265 H6            1 RES     
    5203 H6        -127.3463   -71.2965   150.7552 H6            1 RES     
    5204 H6        -127.9775   -69.6658   151.2015 H6            1 RES     
    5205 H6        -126.1997   -71.4063   153.0145 H6            1 RES     
    5206 H6        -126.6743   -69.6981   153.3293 H6            1 RES     
    5207 H6        -129.0727   -70.2555   153.3303 H6            1 RES     
    5208 H6        -128.1400   -71.1266   154.5947 H6            1 RES     
    5209 H6        -128.1291   -73.1952   153.2077 H6            1 RES     
    5210 H6        -129.0996   -72.3477   151.9292 H6            1 RES     
    5211 H6        -129.8000   -72.6141   153.5636 H6            1 RES     
    5212 H6        -123.1258   -67.6870   148.0493 H6            1 RES     
    5213 H6        -123.9441   -69.2265   147.6429 H6            1 RES     
    5214 H6        -121.7610   -69.4418   147.3317 H6            1 RES     
    5215 H6        -120.5366   -69.6974   148.4752 H6            1 RES     
    5216 H6        -122.8632   -71.6902   148.2966 H6            1 RES     
    5217 H6        -121.2243   -71.9513   150.1586 H6            1 RES     
    5218 H6        -121.3989   -73.3883   149.1018 H6            1 RES     
    5219 H6        -119.2363   -72.9492   147.9847 H6            1 RES     
    5220 H6        -119.0736   -71.4117   148.8619 H6            1 RES     
    5221 H6        -117.6290   -72.9487   149.9343 H6            1 RES     
    5222 H6        -119.0034   -72.6842   151.0323 H6            1 RES     
    5223 H6        -119.9977   -74.8830   150.3264 H6            1 RES     
    5224 H6        -118.3596   -75.0350   151.0367 H6            1 RES     
    5225 H6        -119.0268   -75.1842   148.0189 H6            1 RES     
    5226 H6        -118.6317   -76.5408   149.1179 H6            1 RES     
    5227 H6        -116.3432   -75.5895   149.5107 H6            1 RES     
    5228 H6        -116.6628   -75.9435   147.7719 H6            1 RES     
    5229 H6        -116.7084   -74.2489   148.3478 H6            1 RES     
    5230 H6        -122.4462   -71.6063   146.0457 H6            1 RES     
    5231 H6        -121.5705   -73.0583   146.6166 H6            1 RES     
    5232 H6        -119.3972   -71.5349   146.4499 H6            1 RES     
    5233 H6        -120.4359   -70.3063   145.7162 H6            1 RES     
    5234 H6        -119.1732   -71.6272   144.0819 H6            1 RES     
    5235 H6        -119.8837   -73.1663   144.6838 H6            1 RES     
    5236 H6        -121.4876   -70.8687   143.3544 H6            1 RES     
    5237 H6        -122.1503   -72.4327   143.9571 H6            1 RES     
    5238 H6        -120.7546   -73.7014   142.3298 H6            1 RES     
    5239 H6        -121.9357   -72.5653   141.5846 H6            1 RES     
    5240 H6        -118.9183   -72.0076   141.9192 H6            1 RES     
    5241 H6        -120.1181   -70.8894   141.1759 H6            1 RES     
    5242 H6        -118.7450   -72.1273   139.5130 H6            1 RES     
    5243 H6        -119.3192   -73.7056   140.1592 H6            1 RES     
    5244 H6        -121.6606   -73.1369   139.4246 H6            1 RES     
    5245 H6        -120.4993   -73.0410   138.0632 H6            1 RES     
    5246 H6        -121.0768   -71.5217   138.8448 H6            1 RES     
    5247 C0        -130.7130   -60.6076   154.5617 C0            1 RES     
    5248 C0        -131.1530   -60.3068   155.9948 C0            1 RES     
    5249 C0        -130.7791   -61.2929   156.8451 C0            1 RES     
    5250 S1        -131.1828   -60.9831   158.4396 S1            1 RES     
    5251 C0        -131.8879   -59.4822   158.0496 C0            1 RES     
    5252 C0        -131.7387   -59.2400   156.6734 C0            1 RES     
    5253 C0        -129.9864   -62.2452   156.1469 C0            1 RES     
    5254 C0        -129.8784   -61.8532   154.8974 C0            1 RES     
    5255 C0        -128.8701   -62.6152   154.1843 C0            1 RES     
    5256 C0        -128.3084   -63.5750   155.0126 C0            1 RES     
    5257 S1        -128.9864   -63.6197   156.6843 S1            1 RES     
    5258 H2        -131.9994   -58.3038   156.2279 H2            1 RES     
    5259 H2        -128.4889   -62.3853   153.2043 H2            1 RES     
    5260 N3        -134.0736   -56.7009   159.3443 N3            1 RES     
    5261 C0        -133.4440   -57.5774   158.5109 C0            1 RES     
    5262 C0        -132.5378   -58.5399   158.9997 C0            1 RES     
    5263 C0        -132.3227   -58.5627   160.3877 C0            1 RES     
    5264 N3        -131.4812   -59.4219   161.0223 N3            1 RES     
    5265 S1        -131.6207   -58.9573   162.6033 S1            1 RES     
    5266 N3        -132.7025   -57.7102   162.5568 N3            1 RES     
    5267 C0        -132.9845   -57.6304   161.2309 C0            1 RES     
    5268 C0        -133.8636   -56.7018   160.6891 C0            1 RES     
    5269 H4        -133.6782   -57.5434   157.4616 H4            1 RES     
    5270 C5        -132.6588   -51.5726   158.0270 C5            1 RES     
    5271 C5        -131.6470   -52.6991   157.8113 C5            1 RES     
    5272 C5        -132.2849   -54.0278   157.3686 C5            1 RES     
    5273 C5        -133.0244   -53.9530   156.0181 C5            1 RES     
    5274 C5        -133.5810   -55.3347   155.6332 C5            1 RES     
    5275 C5        -134.5080   -55.2822   154.4105 C5            1 RES     
    5276 C5        -135.1298   -56.6598   154.0794 C5            1 RES     
    5277 C5        -134.1975   -57.6380   153.2989 C5            1 RES     
    5278 C5        -133.8397   -58.9800   154.0089 C5            1 RES     
    5279 C5        -135.1013   -59.8302   154.3385 C5            1 RES     
    5280 C5        -134.8668   -60.8031   155.5092 C5            1 RES     
    5281 C5        -136.1983   -61.2396   156.1569 C5            1 RES     
    5282 C5        -135.9507   -61.9714   157.4883 C5            1 RES     
    5283 C5        -137.2288   -62.1655   158.3239 C5            1 RES     
    5284 C5        -138.2543   -63.0887   157.6753 C5            1 RES     
    5285 C5        -132.7800   -59.7137   153.1239 C5            1 RES     
    5286 C0        -131.8849   -60.9452   153.5366 C0            1 RES     
    5287 C5        -131.3223   -61.5188   152.1643 C5            1 RES     
    5288 C5        -132.0392   -62.8131   151.6532 C5            1 RES     
    5289 C5        -131.4554   -64.1337   152.2554 C5            1 RES     
    5290 C5        -130.0860   -64.5771   151.6891 C5            1 RES     
    5291 C5        -129.4519   -65.7715   152.4250 C5            1 RES     
    5292 C5        -130.1406   -67.1308   152.1982 C5            1 RES     
    5293 C5        -130.1299   -67.6342   150.7386 C5            1 RES     
    5294 C5        -128.7209   -67.8149   150.1644 C5            1 RES     
    5295 C5        -132.1957   -62.8718   150.0971 C5            1 RES     
    5296 C5        -130.9627   -62.4982   149.2342 C5            1 RES     
    5297 C5        -131.1593   -62.7958   147.7304 C5            1 RES     
    5298 C5        -132.3413   -62.0457   147.0873 C5            1 RES     
    5299 C5        -132.5129   -62.3485   145.5851 C5            1 RES     
    5300 C5        -131.3571   -61.8150   144.7165 C5            1 RES     
    5301 C5        -131.5277   -62.1190   143.2172 C5            1 RES     
    5302 C5        -132.7463   -61.4433   142.5866 C5            1 RES     
    5303 H6        -133.1614   -51.3012   157.0766 H6            1 RES     
    5304 H6        -132.1298   -50.6700   158.4006 H6            1 RES     
    5305 H6        -133.4206   -51.8718   158.7779 H6            1 RES     
    5306 H6        -130.8906   -52.3763   157.0648 H6            1 RES     
    5307 H6        -131.1252   -52.8771   158.7777 H6            1 RES     
    5308 H6        -131.4735   -54.7841   157.2943 H6            1 RES     
    5309 H6        -132.9949   -54.3609   158.1576 H6            1 RES     
    5310 H6        -132.3376   -53.5944   155.2206 H6            1 RES     
    5311 H6        -133.8708   -53.2407   156.1135 H6            1 RES     
    5312 H6        -132.7412   -56.0418   155.4621 H6            1 RES     
    5313 H6        -134.2025   -55.6856   156.4802 H6            1 RES     
    5314 H6        -135.3422   -54.5972   154.6804 H6            1 RES     
    5315 H6        -133.9978   -54.8607   153.5178 H6            1 RES     
    5316 H6        -135.5430   -57.0857   155.0159 H6            1 RES     
    5317 H6        -135.9970   -56.4674   153.4124 H6            1 RES     
    5318 H6        -133.2522   -57.0900   153.0858 H6            1 RES     
    5319 H6        -134.6496   -57.8584   152.3076 H6            1 RES     
    5320 H6        -133.4313   -58.6403   154.9343 H6            1 RES     
    5321 H6        -135.8796   -59.1370   154.7010 H6            1 RES     
    5322 H6        -135.5329   -60.3276   153.4431 H6            1 RES     
    5323 H6        -134.2434   -61.6687   155.2003 H6            1 RES     
    5324 H6        -134.3236   -60.2410   156.2976 H6            1 RES     
    5325 H6        -136.7947   -61.8593   155.4534 H6            1 RES     
    5326 H6        -136.7796   -60.3220   156.3986 H6            1 RES     
    5327 H6        -135.4447   -62.9432   157.3066 H6            1 RES     
    5328 H6        -135.2764   -61.3406   158.1102 H6            1 RES     
    5329 H6        -137.6986   -61.1759   158.5213 H6            1 RES     
    5330 H6        -136.9403   -62.6044   159.3037 H6            1 RES     
    5331 H6        -137.8112   -64.0922   157.5061 H6            1 RES     
    5332 H6        -138.6145   -62.6706   156.7134 H6            1 RES     
    5333 H6        -139.1271   -63.1954   158.3549 H6            1 RES     
    5334 H6        -132.0390   -58.9553   152.7863 H6            1 RES     
    5335 H6        -133.3703   -60.0134   152.2266 H6            1 RES     
    5336 H6        -131.4489   -60.7330   151.3902 H6            1 RES     
    5337 H6        -130.2312   -61.6455   152.1363 H6            1 RES     
    5338 H6        -133.0880   -62.7602   152.0260 H6            1 RES     
    5339 H6        -131.3848   -64.0046   153.3572 H6            1 RES     
    5340 H6        -132.1728   -64.9596   152.0612 H6            1 RES     
    5341 H6        -130.1663   -64.8395   150.6200 H6            1 RES     
    5342 H6        -129.3812   -63.7368   151.7721 H6            1 RES     
    5343 H6        -128.3935   -65.8616   152.1022 H6            1 RES     
    5344 H6        -129.4338   -65.5546   153.5121 H6            1 RES     
    5345 H6        -131.1901   -67.0780   152.5549 H6            1 RES     
    5346 H6        -129.6129   -67.8855   152.8222 H6            1 RES     
    5347 H6        -130.7079   -66.9511   150.0831 H6            1 RES     
    5348 H6        -130.6355   -68.6237   150.7169 H6            1 RES     
    5349 H6        -128.1298   -68.5127   150.7951 H6            1 RES     
    5350 H6        -128.7893   -68.2375   149.1396 H6            1 RES     
    5351 H6        -128.1887   -66.8445   150.0904 H6            1 RES     
    5352 H6        -132.9868   -62.1422   149.8226 H6            1 RES     
    5353 H6        -132.5718   -63.8825   149.8262 H6            1 RES     
    5354 H6        -130.0622   -63.0526   149.5348 H6            1 RES     
    5355 H6        -130.7262   -61.4229   149.3617 H6            1 RES     
    5356 H6        -130.2159   -62.5070   147.2229 H6            1 RES     
    5357 H6        -131.3051   -63.8900   147.5929 H6            1 RES     
    5358 H6        -132.2251   -60.9500   147.2333 H6            1 RES     
    5359 H6        -133.2779   -62.3695   147.5873 H6            1 RES     
    5360 H6        -132.6251   -63.4453   145.4374 H6            1 RES     
    5361 H6        -133.4544   -61.8568   145.2639 H6            1 RES     
    5362 H6        -130.4076   -62.2934   145.0310 H6            1 RES     
    5363 H6        -131.2599   -60.7166   144.8593 H6            1 RES     
    5364 H6        -130.6231   -61.7475   142.6880 H6            1 RES     
    5365 H6        -131.5919   -63.2175   143.0600 H6            1 RES     
    5366 H6        -133.6903   -61.8244   143.0253 H6            1 RES     
    5367 H6        -132.7661   -61.6649   141.4984 H6            1 RES     
    5368 H6        -132.6909   -60.3427   142.7227 H6            1 RES     
    5369 C0        -135.8539   -52.2574   162.3088 C0            1 RES     
    5370 C0        -135.9636   -52.2782   163.8337 C0            1 RES     
    5371 C0        -135.8229   -53.5334   164.3234 C0            1 RES     
    5372 S1        -135.8731   -53.6033   165.9950 S1            1 RES     
    5373 C0        -136.0873   -51.9192   166.1355 C0            1 RES     
    5374 C0        -136.0608   -51.3371   164.8567 C0            1 RES     
    5375 C0        -135.4973   -54.4223   163.2621 C0            1 RES     
    5376 C0        -135.4417   -53.7288   162.1474 C0            1 RES     
    5377 C0        -134.8541   -54.5000   161.0678 C0            1 RES     
    5378 C0        -134.5325   -55.7776   161.5006 C0            1 RES     
    5379 S1        -134.9454   -56.1169   163.2241 S1            1 RES     
    5380 H2        -136.0557   -50.2777   164.7127 H2            1 RES     
    5381 H2        -134.5595   -54.1103   160.1086 H2            1 RES     
    5382 N3        -137.0216   -49.1414   168.5021 N3            1 RES     
    5383 C0        -136.8420   -49.8757   167.3672 C0            1 RES     
    5384 C0        -136.2476   -51.1532   167.4006 C0            1 RES     
    5385 C0        -135.8599   -51.6407   168.6598 C0            1 RES     
    5386 N3        -135.2712   -52.8483   168.8698 N3            1 RES     
    5387 S1        -135.0254   -52.8471   170.5052 S1            1 RES     
    5388 N3        -135.6272   -51.3895   170.9962 N3            1 RES     
    5389 C0        -136.0496   -50.8493   169.8242 C0            1 RES     
    5390 C0        -136.6374   -49.5949   169.7266 C0            1 RES     
    5391 H4        -137.1963   -49.4717   166.4354 H4            1 RES     
    5392 C5        -134.1845   -44.4668   168.1351 C5            1 RES     
    5393 C5        -133.6448   -45.7177   167.4400 C5            1 RES     
    5394 C5        -134.7429   -46.6232   166.8546 C5            1 RES     
    5395 C5        -135.5972   -45.9517   165.7613 C5            1 RES     
    5396 C5        -136.6290   -46.9453   165.1998 C5            1 RES     
    5397 C5        -137.6477   -46.2789   164.2644 C5            1 RES     
    5398 C5        -138.7315   -47.2662   163.7695 C5            1 RES     
    5399 C5        -138.2958   -48.1940   162.5929 C5            1 RES     
    5400 C5        -138.3079   -49.7289   162.8704 C5            1 RES     
    5401 C5        -139.7207   -50.2476   163.2678 C5            1 RES     
    5402 C5        -139.6607   -51.5453   164.0950 C5            1 RES     
    5403 C5        -140.9570   -51.7594   164.9057 C5            1 RES     
    5404 C5        -140.7821   -52.8875   165.9384 C5            1 RES     
    5405 C5        -141.9217   -52.9499   166.9714 C5            1 RES     
    5406 C5        -143.2756   -53.3155   166.3732 C5            1 RES     
    5407 C5        -137.6870   -50.4385   161.6232 C5            1 RES     
    5408 C0        -137.2029   -51.9364   161.5243 C0            1 RES     
    5409 C5        -137.0609   -52.2173   159.9656 C5            1 RES     
    5410 C5        -138.2309   -53.0491   159.3413 C5            1 RES     
    5411 C5        -138.0402   -54.5964   159.4710 C5            1 RES     
    5412 C5        -136.9892   -55.2210   158.5233 C5            1 RES     
    5413 C5        -136.6910   -56.7062   158.7976 C5            1 RES     
    5414 C5        -137.8164   -57.6886   158.4207 C5            1 RES     
    5415 C5        -138.1782   -57.7245   156.9201 C5            1 RES     
    5416 C5        -137.0042   -58.1179   156.0174 C5            1 RES     
    5417 C5        -138.6145   -52.6034   157.8910 C5            1 RES     
    5418 C5        -137.4613   -52.3561   156.8843 C5            1 RES     
    5419 C5        -137.9543   -52.1328   155.4366 C5            1 RES     
    5420 C5        -138.8981   -50.9267   155.2698 C5            1 RES     
    5421 C5        -139.3693   -50.7156   153.8167 C5            1 RES     
    5422 C5        -138.2359   -50.2988   152.8594 C5            1 RES     
    5423 C5        -138.7061   -50.0899   151.4086 C5            1 RES     
    5424 C5        -139.7070   -48.9452   151.2445 C5            1 RES     
    5425 H6        -134.6964   -43.7993   167.4127 H6            1 RES     
    5426 H6        -133.3391   -43.8999   168.5801 H6            1 RES     
    5427 H6        -134.8891   -44.7458   168.9471 H6            1 RES     
    5428 H6        -132.9366   -45.4170   166.6389 H6            1 RES     
    5429 H6        -133.0815   -46.3100   168.1950 H6            1 RES     
    5430 H6        -134.2474   -47.5208   166.4250 H6            1 RES     
    5431 H6        -135.4051   -46.9589   167.6831 H6            1 RES     
    5432 H6        -134.9493   -45.5838   164.9360 H6            1 RES     
    5433 H6        -136.1369   -45.0906   166.2085 H6            1 RES     
    5434 H6        -136.1043   -47.7776   164.6837 H6            1 RES     
    5435 H6        -137.2064   -47.3391   166.0591 H6            1 RES     
    5436 H6        -138.1608   -45.4973   164.8676 H6            1 RES     
    5437 H6        -137.1570   -45.7759   163.4035 H6            1 RES     
    5438 H6        -139.1269   -47.8133   164.6491 H6            1 RES     
    5439 H6        -139.5700   -46.6514   163.3790 H6            1 RES     
    5440 H6        -137.2620   -47.8966   162.3063 H6            1 RES     
    5441 H6        -138.9297   -47.9783   161.7056 H6            1 RES     
    5442 H6        -137.6845   -49.8041   163.7330 H6            1 RES     
    5443 H6        -140.1659   -49.5013   163.9478 H6            1 RES     
    5444 H6        -140.4140   -50.3188   162.4019 H6            1 RES     
    5445 H6        -139.4098   -52.4213   163.4603 H6            1 RES     
    5446 H6        -138.8570   -51.4151   164.8497 H6            1 RES     
    5447 H6        -141.8175   -51.9522   164.2299 H6            1 RES     
    5448 H6        -141.1608   -50.8280   165.4796 H6            1 RES     
    5449 H6        -140.6582   -53.8647   165.4256 H6            1 RES     
    5450 H6        -139.8566   -52.6826   166.5221 H6            1 RES     
    5451 H6        -142.0038   -51.9712   167.4950 H6            1 RES     
    5452 H6        -141.6609   -53.7189   167.7306 H6            1 RES     
    5453 H6        -143.2191   -54.3078   165.8790 H6            1 RES     
    5454 H6        -143.6078   -52.5507   165.6422 H6            1 RES     
    5455 H6        -144.0299   -53.3665   167.1878 H6            1 RES     
    5456 H6        -136.7914   -49.8549   161.3140 H6            1 RES     
    5457 H6        -138.4629   -50.2838   160.8374 H6            1 RES     
    5458 H6        -137.0266   -51.2370   159.4454 H6            1 RES     
    5459 H6        -136.0890   -52.6317   159.6637 H6            1 RES     
    5460 H6        -139.1394   -52.8150   159.9426 H6            1 RES     
    5461 H6        -137.7769   -54.8207   160.5274 H6            1 RES     
    5462 H6        -139.0106   -55.0927   159.2560 H6            1 RES     
    5463 H6        -137.3012   -55.1254   157.4689 H6            1 RES     
    5464 H6        -136.0413   -54.6755   158.6394 H6            1 RES     
    5465 H6        -135.7788   -56.9918   158.2328 H6            1 RES     
    5466 H6        -136.4497   -56.8313   159.8724 H6            1 RES     
    5467 H6        -138.7279   -57.4496   159.0068 H6            1 RES     
    5468 H6        -137.4871   -58.7093   158.7158 H6            1 RES     
    5469 H6        -138.5825   -56.7459   156.5899 H6            1 RES     
    5470 H6        -138.9813   -58.4804   156.7824 H6            1 RES     
    5471 H6        -136.5960   -59.1064   156.3179 H6            1 RES     
    5472 H6        -137.3520   -58.1850   154.9648 H6            1 RES     
    5473 H6        -136.1960   -57.3590   156.0542 H6            1 RES     
    5474 H6        -139.1488   -51.6337   157.9799 H6            1 RES     
    5475 H6        -139.3387   -53.3421   157.4834 H6            1 RES     
    5476 H6        -136.7632   -53.2039   156.8363 H6            1 RES     
    5477 H6        -136.8659   -51.4772   157.2028 H6            1 RES     
    5478 H6        -137.0495   -51.9856   154.8115 H6            1 RES     
    5479 H6        -138.4727   -53.0515   155.0838 H6            1 RES     
    5480 H6        -138.4056   -50.0007   155.6376 H6            1 RES     
    5481 H6        -139.8092   -51.1056   155.8781 H6            1 RES     
    5482 H6        -139.8587   -51.6432   153.4462 H6            1 RES     
    5483 H6        -140.1294   -49.9074   153.8399 H6            1 RES     
    5484 H6        -137.4648   -51.0950   152.8313 H6            1 RES     
    5485 H6        -137.7606   -49.3640   153.2291 H6            1 RES     
    5486 H6        -137.8131   -49.8499   150.7911 H6            1 RES     
    5487 H6        -139.1526   -51.0299   151.0178 H6            1 RES     
    5488 H6        -140.6526   -49.1564   151.7831 H6            1 RES     
    5489 H6        -139.9516   -48.8237   150.1679 H6            1 RES     
    5490 H6        -139.2710   -47.9947   151.6178 H6            1 RES     
    5491 C0        -136.7919   -45.4472   172.7450 C0            1 RES     
    5492 C0        -136.6874   -45.8816   174.2073 C0            1 RES     
    5493 C0        -136.9040   -47.2117   174.3456 C0            1 RES     
    5494 S1        -136.7397   -47.7506   175.9217 S1            1 RES     
    5495 C0        -136.3608   -46.1923   176.4962 C0            1 RES     
    5496 C0        -136.3222   -45.2935   175.4166 C0            1 RES     
    5497 C0        -137.0442   -47.8051   173.0608 C0            1 RES     
    5498 C0        -136.9184   -46.8607   172.1558 C0            1 RES     
    5499 C0        -136.7775   -47.4149   170.8221 C0            1 RES     
    5500 C0        -136.8409   -48.7995   170.8607 C0            1 RES     
    5501 S1        -137.0970   -49.4979   172.5047 S1            1 RES     
    5502 H2        -135.9860   -44.2846   175.5266 H2            1 RES     
    5503 H2        -136.5080   -46.8609   169.9395 H2            1 RES     
    5504 N3        -135.9787   -44.0834   179.5940 N3            1 RES     
    5505 C0        -136.2140   -44.4729   178.3086 C0            1 RES     
    5506 C0        -136.0788   -45.8174   177.9079 C0            1 RES     
    5507 C0        -135.7024   -46.7404   178.8977 C0            1 RES     
    5508 N3        -135.5245   -48.0711   178.6817 N3            1 RES     
    5509 S1        -135.0656   -48.6177   180.1735 S1            1 RES     
    5510 N3        -135.0743   -47.2599   181.1139 N3            1 RES     
    5511 C0        -135.4534   -46.3045   180.2266 C0            1 RES     
    5512 C0        -135.5991   -44.9642   180.5598 C0            1 RES     
    5513 H4        -136.5410   -43.7313   177.6013 H4            1 RES     
    5514 C5        -131.8320   -40.5014   179.6995 C5            1 RES     
    5515 C5        -131.8412   -41.5931   178.6283 C5            1 RES     
    5516 C5        -133.2482   -41.9405   178.1104 C5            1 RES     
    5517 C5        -133.9756   -40.7667   177.4256 C5            1 RES     
    5518 C5        -135.3465   -41.2204   176.8948 C5            1 RES     
    5519 C5        -136.2068   -40.0511   176.3951 C5            1 RES     
    5520 C5        -137.6148   -40.5039   175.9406 C5            1 RES     
    5521 C5        -137.6813   -41.1300   174.5128 C5            1 RES     
    5522 C5        -138.1632   -42.6106   174.4195 C5            1 RES     
    5523 C5        -139.5976   -42.8037   174.9925 C5            1 RES     
    5524 C5        -139.8563   -44.2487   175.4584 C5            1 RES     
    5525 C5        -141.0228   -44.3171   176.4672 C5            1 RES     
    5526 C5        -141.0894   -45.6994   177.1412 C5            1 RES     
    5527 C5        -142.0283   -45.7384   178.3604 C5            1 RES     
    5528 C5        -143.4965   -45.5167   178.0142 C5            1 RES     
    5529 C5        -137.9943   -43.0688   172.9342 C5            1 RES     
    5530 C0        -138.0537   -44.5450   172.3818 C0            1 RES     
    5531 C5        -138.2331   -44.3855   170.8098 C5            1 RES     
    5532 C5        -139.6881   -44.6340   170.2886 C5            1 RES     
    5533 C5        -140.0055   -46.1397   170.0069 C5            1 RES     
    5534 C5        -139.3653   -46.7288   168.7279 C5            1 RES     
    5535 C5        -139.5417   -48.2504   168.5733 C5            1 RES     
    5536 C5        -140.9703   -48.7214   168.2409 C5            1 RES     
    5537 C5        -141.5301   -48.2134   166.8946 C5            1 RES     
    5538 C5        -140.6922   -48.6389   165.6844 C5            1 RES     
    5539 C5        -140.1014   -43.6944   169.1073 C5            1 RES     
    5540 C5        -139.0847   -43.4981   167.9530 C5            1 RES     
    5541 C5        -139.6734   -42.7317   166.7469 C5            1 RES     
    5542 C5        -140.1769   -41.3152   167.0834 C5            1 RES     
    5543 C5        -140.7502   -40.5646   165.8644 C5            1 RES     
    5544 C5        -139.6887   -40.2222   164.8009 C5            1 RES     
    5545 C5        -140.2615   -39.4745   163.5833 C5            1 RES     
    5546 C5        -140.8382   -38.0988   163.9209 C5            1 RES     
    5547 H6        -132.1894   -39.5360   179.2874 H6            1 RES     
    5548 H6        -130.7929   -40.3513   180.0623 H6            1 RES     
    5549 H6        -132.4681   -40.7959   180.5611 H6            1 RES     
    5550 H6        -131.1932   -41.2829   177.7812 H6            1 RES     
    5551 H6        -131.4065   -42.5137   179.0772 H6            1 RES     
    5552 H6        -133.1441   -42.7745   177.3828 H6            1 RES     
    5553 H6        -133.8612   -42.3036   178.9648 H6            1 RES     
    5554 H6        -133.3648   -40.3710   176.5849 H6            1 RES     
    5555 H6        -134.1305   -39.9588   178.1712 H6            1 RES     
    5556 H6        -135.2057   -41.9775   176.0940 H6            1 RES     
    5557 H6        -135.8954   -41.6693   177.7457 H6            1 RES     
    5558 H6        -136.3414   -39.3689   177.2638 H6            1 RES     
    5559 H6        -135.7029   -39.4774   175.5877 H6            1 RES     
    5560 H6        -138.0420   -41.1501   176.7338 H6            1 RES     
    5561 H6        -138.2478   -39.5918   175.9037 H6            1 RES     
    5562 H6        -136.6584   -41.0651   174.0783 H6            1 RES     
    5563 H6        -138.3255   -40.4949   173.8667 H6            1 RES     
    5564 H6        -137.4856   -43.1071   175.0775 H6            1 RES     
    5565 H6        -139.6697   -42.1954   175.9104 H6            1 RES     
    5566 H6        -140.3893   -42.4204   174.3130 H6            1 RES     
    5567 H6        -140.0020   -44.9341   174.5969 H6            1 RES     
    5568 H6        -138.9575   -44.5765   176.0216 H6            1 RES     
    5569 H6        -141.9844   -44.0535   175.9768 H6            1 RES     
    5570 H6        -140.8234   -43.5765   177.2735 H6            1 RES     
    5571 H6        -141.3700   -46.4774   176.4000 H6            1 RES     
    5572 H6        -140.0762   -45.9432   177.5326 H6            1 RES     
    5573 H6        -141.7066   -44.9740   179.1027 H6            1 RES     
    5574 H6        -141.9338   -46.7367   178.8402 H6            1 RES     
    5575 H6        -143.8424   -46.2949   177.3023 H6            1 RES     
    5576 H6        -143.6550   -44.5104   177.5761 H6            1 RES     
    5577 H6        -144.1029   -45.5896   178.9427 H6            1 RES     
    5578 H6        -137.0085   -42.6968   172.5763 H6            1 RES     
    5579 H6        -138.7769   -42.4793   172.4018 H6            1 RES     
    5580 H6        -137.9487   -43.3470   170.5390 H6            1 RES     
    5581 H6        -137.5063   -44.9492   170.2086 H6            1 RES     
    5582 H6        -140.3736   -44.3405   171.1167 H6            1 RES     
    5583 H6        -139.6863   -46.7279   170.8945 H6            1 RES     
    5584 H6        -141.1057   -46.2576   169.9063 H6            1 RES     
    5585 H6        -139.7724   -46.2452   167.8231 H6            1 RES     
    5586 H6        -138.2837   -46.5308   168.7515 H6            1 RES     
    5587 H6        -138.8647   -48.6025   167.7669 H6            1 RES     
    5588 H6        -139.2074   -48.7470   169.5064 H6            1 RES     
    5589 H6        -141.6591   -48.4183   169.0564 H6            1 RES     
    5590 H6        -140.9606   -49.8333   168.2075 H6            1 RES     
    5591 H6        -141.6288   -47.1087   166.9019 H6            1 RES     
    5592 H6        -142.5495   -48.6381   166.7687 H6            1 RES     
    5593 H6        -140.5973   -49.7450   165.6458 H6            1 RES     
    5594 H6        -141.1864   -48.2944   164.7514 H6            1 RES     
    5595 H6        -139.6812   -48.1833   165.7144 H6            1 RES     
    5596 H6        -140.2654   -42.6840   169.5382 H6            1 RES     
    5597 H6        -141.0793   -44.0466   168.7124 H6            1 RES     
    5598 H6        -138.7215   -44.4552   167.5523 H6            1 RES     
    5599 H6        -138.1929   -42.9554   168.3254 H6            1 RES     
    5600 H6        -138.8682   -42.6687   165.9862 H6            1 RES     
    5601 H6        -140.5114   -43.3224   166.3154 H6            1 RES     
    5602 H6        -139.3586   -40.7150   167.5366 H6            1 RES     
    5603 H6        -141.0009   -41.4005   167.8222 H6            1 RES     
    5604 H6        -141.5665   -41.1663   165.4075 H6            1 RES     
    5605 H6        -141.1877   -39.6190   166.2463 H6            1 RES     
    5606 H6        -139.2376   -41.1585   164.4146 H6            1 RES     
    5607 H6        -138.8833   -39.6097   165.2619 H6            1 RES     
    5608 H6        -139.4353   -39.3255   162.8541 H6            1 RES     
    5609 H6        -141.0447   -40.0937   163.0947 H6            1 RES     
    5610 H6        -141.7149   -38.1836   164.5940 H6            1 RES     
    5611 H6        -141.1770   -37.6040   162.9860 H6            1 RES     
    5612 H6        -140.0636   -37.4620   164.3978 H6            1 RES     
    5613 C0        -133.9434   -42.0133   184.4183 C0            1 RES     
    5614 C0        -133.7850   -42.8676   185.6764 C0            1 RES     
    5615 C0        -134.4092   -44.0628   185.5455 C0            1 RES     
    5616 S1        -134.2138   -45.0628   186.8734 S1            1 RES     
    5617 C0        -133.2626   -43.9132   187.6954 C0            1 RES     
    5618 C0        -133.0796   -42.7867   186.8754 C0            1 RES     
    5619 C0        -134.9170   -44.1897   184.2231 C0            1 RES     
    5620 C0        -134.6131   -43.0971   183.5594 C0            1 RES     
    5621 C0        -134.8527   -43.2530   182.1367 C0            1 RES     
    5622 C0        -135.3659   -44.5119   181.8640 C0            1 RES     
    5623 S1        -135.6062   -45.5593   183.3137 S1            1 RES     
    5624 H2        -132.4158   -41.9913   187.1394 H2            1 RES     
    5625 H2        -134.5411   -42.5642   181.3705 H2            1 RES     
    5626 N3        -131.7719   -42.9997   191.0320 N3            1 RES     
    5627 C0        -132.3008   -42.9134   189.7782 C0            1 RES     
    5628 C0        -132.6772   -44.0630   189.0547 C0            1 RES     
    5629 C0        -132.4936   -45.3020   189.6906 C0            1 RES     
    5630 N3        -132.7996   -46.5050   189.1355 N3            1 RES     
    5631 S1        -132.3438   -47.5702   190.3155 S1            1 RES     
    5632 N3        -131.7694   -46.6020   191.5241 N3            1 RES     
    5633 C0        -131.9303   -45.3625   190.9934 C0            1 RES     
    5634 C0        -131.5747   -44.1941   191.6543 C0            1 RES     
    5635 H4        -132.4590   -41.9367   189.3560 H4            1 RES     
    5636 C5        -126.7001   -40.9229   191.0343 C5            1 RES     
    5637 C5        -127.2211   -41.6045   189.7681 C5            1 RES     
    5638 C5        -128.7216   -41.3749   189.5141 C5            1 RES     
    5639 C5        -129.1065   -39.8971   189.3043 C5            1 RES     
    5640 C5        -130.6103   -39.7710   189.0052 C5            1 RES     
    5641 C5        -131.0949   -38.3142   188.9994 C5            1 RES     
    5642 C5        -132.6223   -38.1991   188.7809 C5            1 RES     
    5643 C5        -133.0924   -38.3347   187.2991 C5            1 RES     
    5644 C5        -134.0463   -39.5252   186.9736 C5            1 RES     
    5645 C5        -135.3681   -39.4660   187.7936 C5            1 RES     
    5646 C5        -136.0237   -40.8502   187.9551 C5            1 RES     
    5647 C5        -136.9932   -40.8799   189.1561 C5            1 RES     
    5648 C5        -137.4196   -42.3218   189.4858 C5            1 RES     
    5649 C5        -138.1374   -42.4502   190.8414 C5            1 RES     
    5650 C5        -139.4820   -41.7335   190.8965 C5            1 RES     
    5651 C5        -134.2491   -39.5568   185.4237 C5            1 RES     
    5652 C0        -134.8720   -40.7276   184.5697 C0            1 RES     
    5653 C5        -135.2067   -40.0714   183.1604 C5            1 RES     
    5654 C5        -136.7196   -39.7369   182.9371 C5            1 RES     
    5655 C5        -137.5549   -40.9413   182.3906 C5            1 RES     
    5656 C5        -137.3326   -41.2854   180.8990 C5            1 RES     
    5657 C5        -138.0237   -42.5812   180.4371 C5            1 RES     
    5658 C5        -139.5594   -42.5128   180.3345 C5            1 RES     
    5659 C5        -140.1018   -41.4971   179.3058 C5            1 RES     
    5660 C5        -139.6310   -41.7674   177.8729 C5            1 RES     
    5661 C5        -136.9588   -38.4162   182.1323 C5            1 RES     
    5662 C5        -136.1072   -38.1849   180.8573 C5            1 RES     
    5663 C5        -136.5711   -36.9660   180.0280 C5            1 RES     
    5664 C5        -136.5234   -35.6282   180.7906 C5            1 RES     
    5665 C5        -136.9800   -34.4243   179.9420 C5            1 RES     
    5666 C5        -136.0253   -34.0987   178.7769 C5            1 RES     
    5667 C5        -136.4821   -32.8980   177.9289 C5            1 RES     
    5668 C5        -136.5162   -31.5773   178.6993 C5            1 RES     
    5669 H6        -126.7708   -39.8195   190.9505 H6            1 RES     
    5670 H6        -125.6300   -41.1841   191.1785 H6            1 RES     
    5671 H6        -127.2703   -41.2653   191.9238 H6            1 RES     
    5672 H6        -126.6325   -41.2554   188.8933 H6            1 RES     
    5673 H6        -127.0582   -42.6995   189.8798 H6            1 RES     
    5674 H6        -129.0033   -41.9535   188.6077 H6            1 RES     
    5675 H6        -129.2941   -41.7844   190.3756 H6            1 RES     
    5676 H6        -128.5233   -39.4613   188.4639 H6            1 RES     
    5677 H6        -128.8784   -39.3334   190.2333 H6            1 RES     
    5678 H6        -130.8426   -40.2683   188.0392 H6            1 RES     
    5679 H6        -131.1521   -40.2759   189.8288 H6            1 RES     
    5680 H6        -130.8722   -37.9071   190.0107 H6            1 RES     
    5681 H6        -130.5475   -37.6953   188.2561 H6            1 RES     
    5682 H6        -133.1241   -38.9016   189.4765 H6            1 RES     
    5683 H6        -132.9152   -37.1767   189.1016 H6            1 RES     
    5684 H6        -132.1775   -38.4359   186.6728 H6            1 RES     
    5685 H6        -133.5730   -37.3841   186.9814 H6            1 RES     
    5686 H6        -133.4868   -40.3620   187.3274 H6            1 RES     
    5687 H6        -135.1048   -39.1584   188.8201 H6            1 RES     
    5688 H6        -136.0747   -38.6943   187.4187 H6            1 RES     
    5689 H6        -136.5079   -41.1836   187.0130 H6            1 RES     
    5690 H6        -135.2151   -41.5674   188.2088 H6            1 RES     
    5691 H6        -137.8714   -40.2252   188.9704 H6            1 RES     
    5692 H6        -136.4483   -40.4951   190.0469 H6            1 RES     
    5693 H6        -138.0434   -42.7370   188.6662 H6            1 RES     
    5694 H6        -136.5004   -42.9441   189.5709 H6            1 RES     
    5695 H6        -137.4796   -42.0593   191.6497 H6            1 RES     
    5696 H6        -138.3133   -43.5296   191.0408 H6            1 RES     
    5697 H6        -140.1627   -42.1391   190.1193 H6            1 RES     
    5698 H6        -139.3572   -40.6409   190.7529 H6            1 RES     
    5699 H6        -139.9416   -41.9013   191.8943 H6            1 RES     
    5700 H6        -133.2563   -39.3893   184.9499 H6            1 RES     
    5701 H6        -134.8581   -38.6421   185.2340 H6            1 RES     
    5702 H6        -134.6347   -39.1230   183.0828 H6            1 RES     
    5703 H6        -134.8002   -40.6150   182.2964 H6            1 RES     
    5704 H6        -137.1455   -39.5182   183.9434 H6            1 RES     
    5705 H6        -137.3279   -41.8284   183.0208 H6            1 RES     
    5706 H6        -138.6344   -40.7102   182.5157 H6            1 RES     
    5707 H6        -137.6787   -40.4642   180.2478 H6            1 RES     
    5708 H6        -136.2546   -41.4155   180.7239 H6            1 RES     
    5709 H6        -137.6222   -42.8575   179.4395 H6            1 RES     
    5710 H6        -137.7459   -43.4022   181.1284 H6            1 RES     
    5711 H6        -139.9869   -42.2806   181.3319 H6            1 RES     
    5712 H6        -139.9240   -43.5219   180.0410 H6            1 RES     
    5713 H6        -139.8262   -40.4618   179.5929 H6            1 RES     
    5714 H6        -141.2112   -41.5618   179.3171 H6            1 RES     
    5715 H6        -139.9150   -42.7937   177.5567 H6            1 RES     
    5716 H6        -140.1085   -41.0406   177.1822 H6            1 RES     
    5717 H6        -138.5325   -41.6441   177.7800 H6            1 RES     
    5718 H6        -136.7161   -37.5727   182.8128 H6            1 RES     
    5719 H6        -138.0434   -38.3476   181.8968 H6            1 RES     
    5720 H6        -136.1422   -39.0445   180.1730 H6            1 RES     
    5721 H6        -135.0430   -38.0486   181.1354 H6            1 RES     
    5722 H6        -135.9057   -36.9122   179.1419 H6            1 RES     
    5723 H6        -137.6094   -37.1439   179.6707 H6            1 RES     
    5724 H6        -135.4973   -35.4424   181.1751 H6            1 RES     
    5725 H6        -137.2168   -35.6907   181.6551 H6            1 RES     
    5726 H6        -138.0052   -34.6110   179.5532 H6            1 RES     
    5727 H6        -137.0207   -33.5488   180.6226 H6            1 RES     
    5728 H6        -135.9694   -34.9682   178.0912 H6            1 RES     
    5729 H6        -135.0060   -33.9002   179.1746 H6            1 RES     
    5730 H6        -135.7643   -32.7807   177.0878 H6            1 RES     
    5731 H6        -137.4868   -33.1006   177.4986 H6            1 RES     
    5732 H6        -137.2678   -31.6052   179.5138 H6            1 RES     
    5733 H6        -136.7991   -30.7562   178.0070 H6            1 RES     
    5734 H6        -135.5154   -31.3526   179.1247 H6            1 RES     
    5735 C0        -128.5098   -43.0918   195.6203 C0            1 RES     
    5736 C0        -128.4692   -44.2853   196.5752 C0            1 RES     
    5737 C0        -129.4665   -45.1638   196.3127 C0            1 RES     
    5738 S1        -129.4299   -46.5213   197.2913 S1            1 RES     
    5739 C0        -128.0458   -45.9786   198.1230 C0            1 RES     
    5740 C0        -127.6162   -44.7605   197.5693 C0            1 RES     
    5741 C0        -130.1678   -44.7500   195.1467 C0            1 RES     
    5742 C0        -129.6147   -43.6427   194.7056 C0            1 RES     
    5743 C0        -130.0893   -43.3015   193.3775 C0            1 RES     
    5744 C0        -131.0242   -44.2279   192.9411 C0            1 RES     
    5745 S1        -131.3927   -45.5419   194.1219 S1            1 RES     
    5746 H2        -126.6960   -44.2975   197.8552 H2            1 RES     
    5747 H2        -129.6775   -42.5353   192.7434 H2            1 RES     
    5748 N3        -125.8842   -46.5393   201.1566 N3            1 RES     
    5749 C0        -126.5248   -45.9448   200.1100 C0            1 RES     
    5750 C0        -127.3588   -46.6779   199.2419 C0            1 RES     
    5751 C0        -127.5097   -48.0480   199.5127 C0            1 RES     
    5752 N3        -128.2723   -48.8990   198.7755 N3            1 RES     
    5753 S1        -128.0351   -50.3460   199.5403 S1            1 RES     
    5754 N3        -127.0086   -49.9763   200.7802 N3            1 RES     
    5755 C0        -126.8217   -48.6429   200.6040 C0            1 RES     
    5756 C0        -126.0094   -47.8685   201.4219 C0            1 RES     
    5757 H4        -126.4074   -44.8841   199.9744 H4            1 RES     
    5758 C5        -120.4635   -46.0681   200.5013 C5            1 RES     
    5759 C5        -121.3533   -46.1740   199.2618 C5            1 RES     
    5760 C5        -122.7124   -45.4679   199.4132 C5            1 RES     
    5761 C5        -122.6103   -43.9477   199.6466 C5            1 RES     
    5762 C5        -124.0133   -43.3219   199.7318 C5            1 RES     
    5763 C5        -123.9825   -41.8526   200.1758 C5            1 RES     
    5764 C5        -125.3999   -41.2539   200.3401 C5            1 RES     
    5765 C5        -126.0911   -40.8121   199.0126 C5            1 RES     
    5766 C5        -127.4217   -41.5366   198.6416 C5            1 RES     
    5767 C5        -128.5201   -41.3508   199.7288 C5            1 RES     
    5768 C5        -129.5685   -42.4789   199.7060 C5            1 RES     
    5769 C5        -130.3143   -42.5848   201.0535 C5            1 RES     
    5770 C5        -131.1444   -43.8792   201.1246 C5            1 RES     
    5771 C5        -131.6666   -44.1913   202.5386 C5            1 RES     
    5772 C5        -132.6752   -43.1744   203.0610 C5            1 RES     
    5773 C5        -127.8387   -41.0549   197.2139 C5            1 RES     
    5774 C0        -128.9281   -41.7000   196.2730 C0            1 RES     
    5775 C5        -129.2201   -40.5937   195.1686 C5            1 RES     
    5776 C5        -130.5516   -39.7972   195.3763 C5            1 RES     
    5777 C5        -131.8073   -40.5032   194.7662 C5            1 RES     
    5778 C5        -131.9232   -40.4437   193.2249 C5            1 RES     
    5779 C5        -133.0628   -41.2985   192.6410 C5            1 RES     
    5780 C5        -134.4870   -40.7741   192.9059 C5            1 RES     
    5781 C5        -134.8001   -39.3923   192.2922 C5            1 RES     
    5782 C5        -134.6515   -39.3524   190.7677 C5            1 RES     
    5783 C5        -130.4494   -38.2874   194.9774 C5            1 RES     
    5784 C5        -129.7569   -37.9423   193.6335 C5            1 RES     
    5785 C5        -129.9013   -36.4552   193.2383 C5            1 RES     
    5786 C5        -129.3060   -35.4691   194.2613 C5            1 RES     
    5787 C5        -129.4512   -33.9921   193.8427 C5            1 RES     
    5788 C5        -128.6160   -33.6220   192.6016 C5            1 RES     
    5789 C5        -128.7625   -32.1480   192.1828 C5            1 RES     
    5790 C5        -128.2480   -31.1568   193.2277 C5            1 RES     
    5791 H6        -120.1749   -45.0152   200.6956 H6            1 RES     
    5792 H6        -119.5317   -46.6498   200.3356 H6            1 RES     
    5793 H6        -120.9843   -46.4809   201.3912 H6            1 RES     
    5794 H6        -120.8109   -45.7645   198.3833 H6            1 RES     
    5795 H6        -121.5491   -47.2533   199.0751 H6            1 RES     
    5796 H6        -123.2943   -45.6522   198.4841 H6            1 RES     
    5797 H6        -123.2615   -45.9332   200.2614 H6            1 RES     
    5798 H6        -122.0395   -43.4674   198.8221 H6            1 RES     
    5799 H6        -122.0802   -43.7684   200.6055 H6            1 RES     
    5800 H6        -124.5304   -43.4284   198.7543 H6            1 RES     
    5801 H6        -124.5708   -43.8721   200.5150 H6            1 RES     
    5802 H6        -123.4979   -41.8391   201.1773 H6            1 RES     
    5803 H6        -123.3708   -41.2234   199.4940 H6            1 RES     
    5804 H6        -126.0035   -41.9585   200.9470 H6            1 RES     
    5805 H6        -125.2888   -40.3310   200.9481 H6            1 RES     
    5806 H6        -125.3591   -40.9786   198.1906 H6            1 RES     
    5807 H6        -126.2686   -39.7152   199.0424 H6            1 RES     
    5808 H6        -127.1279   -42.5623   198.6548 H6            1 RES     
    5809 H6        -128.0285   -41.4441   200.7123 H6            1 RES     
    5810 H6        -128.9757   -40.3371   199.7137 H6            1 RES     
    5811 H6        -130.2629   -42.3717   198.8460 H6            1 RES     
    5812 H6        -129.0167   -43.4359   199.5963 H6            1 RES     
    5813 H6        -130.9423   -41.6851   201.2286 H6            1 RES     
    5814 H6        -129.5534   -42.6470   201.8631 H6            1 RES     
    5815 H6        -131.9791   -43.8434   200.3929 H6            1 RES     
    5816 H6        -130.4816   -44.7313   200.8527 H6            1 RES     
    5817 H6        -130.8099   -44.2556   203.2462 H6            1 RES     
    5818 H6        -132.1609   -45.1868   202.5148 H6            1 RES     
    5819 H6        -133.5538   -43.1262   202.3844 H6            1 RES     
    5820 H6        -132.2164   -42.1689   203.1522 H6            1 RES     
    5821 H6        -133.0198   -43.4905   204.0692 H6            1 RES     
    5822 H6        -126.9234   -41.0424   196.5812 H6            1 RES     
    5823 H6        -128.1298   -39.9922   197.3853 H6            1 RES     
    5824 H6        -128.3826   -39.8650   195.1878 H6            1 RES     
    5825 H6        -129.1425   -40.9520   194.1328 H6            1 RES     
    5826 H6        -130.7353   -39.7720   196.4751 H6            1 RES     
    5827 H6        -131.8016   -41.5622   195.1040 H6            1 RES     
    5828 H6        -132.7200   -40.0250   195.1817 H6            1 RES     
    5829 H6        -132.0648   -39.4052   192.8787 H6            1 RES     
    5830 H6        -130.9853   -40.8145   192.7861 H6            1 RES     
    5831 H6        -132.9197   -41.3720   191.5425 H6            1 RES     
    5832 H6        -132.9792   -42.3292   193.0406 H6            1 RES     
    5833 H6        -134.6689   -40.7336   193.9998 H6            1 RES     
    5834 H6        -135.2032   -41.5079   192.4748 H6            1 RES     
    5835 H6        -134.1591   -38.6075   192.7435 H6            1 RES     
    5836 H6        -135.8549   -39.1427   192.5378 H6            1 RES     
    5837 H6        -135.3015   -40.1180   190.2929 H6            1 RES     
    5838 H6        -134.9526   -38.3517   190.3917 H6            1 RES     
    5839 H6        -133.5989   -39.5214   190.4611 H6            1 RES     
    5840 H6        -129.8476   -37.7838   195.7634 H6            1 RES     
    5841 H6        -131.4713   -37.8508   195.0149 H6            1 RES     
    5842 H6        -130.1709   -38.5179   192.7934 H6            1 RES     
    5843 H6        -128.6799   -38.1985   193.6887 H6            1 RES     
    5844 H6        -129.3870   -36.3338   192.2628 H6            1 RES     
    5845 H6        -130.9790   -36.2213   193.0927 H6            1 RES     
    5846 H6        -128.2332   -35.7004   194.4373 H6            1 RES     
    5847 H6        -129.8523   -35.5843   195.2207 H6            1 RES     
    5848 H6        -130.5241   -33.7607   193.6623 H6            1 RES     
    5849 H6        -129.1033   -33.3797   194.7001 H6            1 RES     
    5850 H6        -128.9486   -34.2318   191.7374 H6            1 RES     
    5851 H6        -127.5435   -33.8436   192.7945 H6            1 RES     
    5852 H6        -128.1719   -31.9966   191.2529 H6            1 RES     
    5853 H6        -129.8273   -31.9248   191.9548 H6            1 RES     
    5854 H6        -128.8441   -31.2094   194.1608 H6            1 RES     
    5855 H6        -128.3364   -30.1242   192.8283 H6            1 RES     
    5856 H6        -127.1802   -31.3574   193.4571 H6            1 RES     
    5857 C0        -122.2285   -48.8834   204.7403 C0            1 RES     
    5858 C0        -122.4529   -50.2651   205.3556 C0            1 RES     
    5859 C0        -123.7115   -50.7108   205.1268 C0            1 RES     
    5860 S1        -123.9908   -52.2481   205.7271 S1            1 RES     
    5861 C0        -122.4029   -52.3847   206.3289 C0            1 RES     
    5862 C0        -121.6756   -51.2302   205.9928 C0            1 RES     
    5863 C0        -124.3919   -49.7942   204.2785 C0            1 RES     
    5864 C0        -123.5703   -48.8086   203.9953 C0            1 RES     
    5865 C0        -124.0860   -47.9746   202.9257 C0            1 RES     
    5866 C0        -125.3268   -48.4308   202.5071 C0            1 RES     
    5867 S1        -125.9410   -49.8735   203.4001 S1            1 RES     
    5868 H2        -120.6233   -51.1494   206.1640 H2            1 RES     
    5869 H2        -123.5364   -47.2047   202.4121 H2            1 RES     
    5870 N3        -120.1473   -54.3927   208.5804 N3            1 RES     
    5871 C0        -120.6942   -53.3629   207.8735 C0            1 RES     
    5872 C0        -121.8373   -53.5444   207.0691 C0            1 RES     
    5873 C0        -122.3948   -54.8334   207.0392 C0            1 RES     
    5874 N3        -123.4919   -55.1811   206.3150 N3            1 RES     
    5875 S1        -123.6438   -56.7940   206.6470 S1            1 RES     
    5876 N3        -122.3896   -57.1076   207.6749 N3            1 RES     
    5877 C0        -121.7974   -55.8899   207.7775 C0            1 RES     
    5878 C0        -120.6680   -55.6499   208.5491 C0            1 RES     
    5879 H4        -120.2517   -52.3869   207.9666 H4            1 RES     
    5880 C5        -115.0260   -55.2945   206.8495 C5            1 RES     
    5881 C5        -116.0650   -54.7784   205.8528 C5            1 RES     
    5882 C5        -117.0773   -53.7952   206.4670 C5            1 RES     
    5883 C5        -116.4448   -52.5028   207.0199 C5            1 RES     
    5884 C5        -117.5339   -51.5613   207.5627 C5            1 RES     
    5885 C5        -116.9553   -50.3570   208.3188 C5            1 RES     
    5886 C5        -118.0557   -49.4594   208.9333 C5            1 RES     
    5887 C5        -118.7400   -48.4728   207.9366 C5            1 RES     
    5888 C5        -120.2737   -48.6522   207.7163 C5            1 RES     
    5889 C5        -121.0843   -48.4917   209.0354 C5            1 RES     
    5890 C5        -122.4398   -49.2212   208.9866 C5            1 RES     
    5891 C5        -122.9818   -49.5026   210.4044 C5            1 RES     
    5892 C5        -124.1758   -50.4730   210.3564 C5            1 RES     
    5893 C5        -124.5682   -51.0252   211.7386 C5            1 RES     
    5894 C5        -125.0983   -49.9650   212.6974 C5            1 RES     
    5895 C5        -120.7030   -47.6769   206.5722 C5            1 RES     
    5896 C0        -122.0652   -47.6848   205.7769 C0            1 RES     
    5897 C5        -122.1253   -46.2684   205.0565 C5            1 RES     
    5898 C5        -123.0740   -45.2268   205.7389 C5            1 RES     
    5899 C5        -124.5651   -45.3404   205.2798 C5            1 RES     
    5900 C5        -124.8696   -44.8024   203.8619 C5            1 RES     
    5901 C5        -126.2982   -45.0923   203.3667 C5            1 RES     
    5902 C5        -127.4156   -44.2901   204.0605 C5            1 RES     
    5903 C5        -127.3350   -42.7596   203.8733 C5            1 RES     
    5904 C5        -127.3970   -42.3188   202.4071 C5            1 RES     
    5905 C5        -122.5333   -43.7589   205.6911 C5            1 RES     
    5906 C5        -121.9613   -43.2451   204.3446 C5            1 RES     
    5907 C5        -121.6579   -41.7297   204.3506 C5            1 RES     
    5908 C5        -120.6318   -41.2952   205.4144 C5            1 RES     
    5909 C5        -120.3358   -39.7819   205.3962 C5            1 RES     
    5910 C5        -119.6078   -39.3154   204.1205 C5            1 RES     
    5911 C5        -119.3140   -37.8044   204.1016 C5            1 RES     
    5912 C5        -118.3585   -37.3490   205.2056 C5            1 RES     
    5913 H6        -114.3802   -54.4703   207.2142 H6            1 RES     
    5914 H6        -114.3732   -56.0398   206.3470 H6            1 RES     
    5915 H6        -115.5242   -55.7858   207.7121 H6            1 RES     
    5916 H6        -115.5464   -54.2996   204.9953 H6            1 RES     
    5917 H6        -116.6321   -55.6551   205.4682 H6            1 RES     
    5918 H6        -117.8115   -53.5281   205.6763 H6            1 RES     
    5919 H6        -117.6251   -54.3143   207.2844 H6            1 RES     
    5920 H6        -115.8685   -51.9831   206.2236 H6            1 RES     
    5921 H6        -115.7563   -52.7686   207.8494 H6            1 RES     
    5922 H6        -118.1887   -51.2272   206.7296 H6            1 RES     
    5923 H6        -118.1267   -52.1366   208.3006 H6            1 RES     
    5924 H6        -116.3583   -50.7740   209.1602 H6            1 RES     
    5925 H6        -116.2714   -49.7544   207.6831 H6            1 RES     
    5926 H6        -118.7676   -50.1112   209.4788 H6            1 RES     
    5927 H6        -117.5605   -48.8251   209.6990 H6            1 RES     
    5928 H6        -118.2277   -48.5902   206.9553 H6            1 RES     
    5929 H6        -118.5373   -47.4290   208.2610 H6            1 RES     
    5930 H6        -120.3382   -49.6761   207.4229 H6            1 RES     
    5931 H6        -120.5187   -49.0030   209.8332 H6            1 RES     
    5932 H6        -121.1749   -47.4326   209.3605 H6            1 RES     
    5933 H6        -123.1726   -48.6763   208.3546 H6            1 RES     
    5934 H6        -122.2581   -50.2189   208.5350 H6            1 RES     
    5935 H6        -123.2444   -48.5550   210.9216 H6            1 RES     
    5936 H6        -122.1791   -50.0103   210.9843 H6            1 RES     
    5937 H6        -125.0451   -49.9915   209.8606 H6            1 RES     
    5938 H6        -123.8784   -51.3585   209.7508 H6            1 RES     
    5939 H6        -123.6911   -51.5319   212.1999 H6            1 RES     
    5940 H6        -125.3631   -51.7890   211.5949 H6            1 RES     
    5941 H6        -125.9968   -49.4759   212.2666 H6            1 RES     
    5942 H6        -124.3238   -49.2018   212.9151 H6            1 RES     
    5943 H6        -125.3833   -50.4520   213.6548 H6            1 RES     
    5944 H6        -119.9337   -47.7377   205.7705 H6            1 RES     
    5945 H6        -120.5979   -46.6740   207.0481 H6            1 RES     
    5946 H6        -121.0995   -45.8435   205.0562 H6            1 RES     
    5947 H6        -122.3170   -46.3146   203.9755 H6            1 RES     
    5948 H6        -123.0828   -45.4737   206.8255 H6            1 RES     
    5949 H6        -124.8639   -46.4087   205.3507 H6            1 RES     
    5950 H6        -125.1996   -44.7683   205.9901 H6            1 RES     
    5951 H6        -124.7056   -43.7122   203.8088 H6            1 RES     
    5952 H6        -124.1793   -45.2766   203.1489 H6            1 RES     
    5953 H6        -126.3432   -44.8783   202.2782 H6            1 RES     
    5954 H6        -126.5063   -46.1749   203.4851 H6            1 RES     
    5955 H6        -127.4185   -44.5220   205.1457 H6            1 RES     
    5956 H6        -128.3877   -44.6333   203.6426 H6            1 RES     
    5957 H6        -126.4134   -42.3547   204.3391 H6            1 RES     
    5958 H6        -128.2017   -42.3068   204.4015 H6            1 RES     
    5959 H6        -128.3239   -42.6968   201.9256 H6            1 RES     
    5960 H6        -127.3984   -41.2096   202.3530 H6            1 RES     
    5961 H6        -126.5142   -42.6795   201.8406 H6            1 RES     
    5962 H6        -121.6947   -43.6980   206.4167 H6            1 RES     
    5963 H6        -123.3365   -43.0836   206.0588 H6            1 RES     
    5964 H6        -122.6563   -43.4088   203.5087 H6            1 RES     
    5965 H6        -121.0339   -43.7981   204.0944 H6            1 RES     
    5966 H6        -121.2746   -41.4778   203.3404 H6            1 RES     
    5967 H6        -122.6060   -41.1702   204.5103 H6            1 RES     
    5968 H6        -119.6831   -41.8597   205.2853 H6            1 RES     
    5969 H6        -121.0451   -41.5275   206.4181 H6            1 RES     
    5970 H6        -121.2851   -39.2159   205.5213 H6            1 RES     
    5971 H6        -119.6877   -39.5709   206.2719 H6            1 RES     
    5972 H6        -120.2416   -39.5262   203.2356 H6            1 RES     
    5973 H6        -118.6539   -39.8759   204.0096 H6            1 RES     
    5974 H6        -118.8431   -37.5600   203.1244 H6            1 RES     
    5975 H6        -120.2651   -37.2343   204.1779 H6            1 RES     
    5976 H6        -118.8012   -37.5025   206.2103 H6            1 RES     
    5977 H6        -118.1543   -36.2635   205.0889 H6            1 RES     
    5978 H6        -117.3968   -37.8997   205.1352 H6            1 RES     
    5979 C0        -117.0126   -58.6117   210.5992 C0            1 RES     
    5980 C0        -117.5942   -59.9915   210.9091 C0            1 RES     
    5981 C0        -118.9484   -59.9779   210.8721 C0            1 RES     
    5982 S1        -119.6349   -61.4801   211.1438 S1            1 RES     
    5983 C0        -118.1147   -62.2275   211.3234 C0            1 RES     
    5984 C0        -117.1001   -61.2785   211.1112 C0            1 RES     
    5985 C0        -119.3977   -58.7007   210.4370 C0            1 RES     
    5986 C0        -118.3439   -57.9481   210.2143 C0            1 RES     
    5987 C0        -118.6981   -56.7278   209.5134 C0            1 RES     
    5988 C0        -120.0657   -56.6733   209.2905 C0            1 RES     
    5989 S1        -120.9923   -58.0805   209.9366 S1            1 RES     
    5990 H2        -116.0677   -61.5508   211.0551 H2            1 RES     
    5991 H2        -118.0019   -56.0283   209.0836 H2            1 RES     
    5992 N3        -116.3613   -65.3559   212.4760 N3            1 RES     
    5993 C0        -116.6288   -64.0540   212.1711 C0            1 RES     
    5994 C0        -117.8681   -63.6631   211.6253 C0            1 RES     
    5995 C0        -118.8202   -64.6757   211.4215 C0            1 RES     
    5996 N3        -120.0606   -64.4730   210.9025 N3            1 RES     
    5997 S1        -120.6910   -66.0016   210.8740 S1            1 RES     
    5998 N3        -119.4810   -66.9417   211.4906 N3            1 RES     
    5999 C0        -118.5101   -66.0253   211.7386 C0            1 RES     
    6000 C0        -117.2687   -66.3493   212.2701 C0            1 RES     
    6001 H4        -115.8790   -63.3137   212.3873 H4            1 RES     
    6002 C5        -112.1260   -67.1136   209.4745 C5            1 RES     
    6003 C5        -113.0637   -66.0581   208.8863 C5            1 RES     
    6004 C5        -113.5955   -65.0546   209.9250 C5            1 RES     
    6005 C5        -112.4990   -64.2130   210.6073 C5            1 RES     
    6006 C5        -113.1264   -63.2052   211.5859 C5            1 RES     
    6007 C5        -112.0809   -62.4885   212.4521 C5            1 RES     
    6008 C5        -112.7233   -61.5385   213.4909 C5            1 RES     
    6009 C5        -113.1740   -60.1527   212.9327 C5            1 RES     
    6010 C5        -114.6952   -59.8209   213.0278 C5            1 RES     
    6011 C5        -115.2130   -59.8323   214.4957 C5            1 RES     
    6012 C5        -116.7265   -60.1036   214.5844 C5            1 RES     
    6013 C5        -117.1266   -60.6233   215.9819 C5            1 RES     
    6014 C5        -118.5693   -61.1604   215.9788 C5            1 RES     
    6015 C5        -118.9248   -61.9592   217.2456 C5            1 RES     
    6016 C5        -118.9330   -61.1217   218.5196 C5            1 RES     
    6017 C5        -114.9323   -58.4740   212.2701 C5            1 RES     
    6018 C0        -116.3171   -57.8655   211.8229 C0            1 RES     
    6019 C5        -116.0041   -56.3433   211.4858 C5            1 RES     
    6020 C5        -116.4476   -55.3243   212.5882 C5            1 RES     
    6021 C5        -117.9407   -54.8745   212.4633 C5            1 RES     
    6022 C5        -118.2450   -53.8822   211.3164 C5            1 RES     
    6023 C5        -119.7433   -53.6005   211.1021 C5            1 RES     
    6024 C5        -120.4221   -52.7562   212.1975 C5            1 RES     
    6025 C5        -119.8652   -51.3252   212.3597 C5            1 RES     
    6026 C5        -119.9823   -50.4759   211.0897 C5            1 RES     
    6027 C5        -115.4629   -54.1208   212.7641 C5            1 RES     
    6028 C5        -114.9475   -53.4179   211.4816 C5            1 RES     
    6029 C5        -114.1606   -52.1200   211.7729 C5            1 RES     
    6030 C5        -112.9101   -52.3228   212.6494 C5            1 RES     
    6031 C5        -112.1343   -51.0176   212.9189 C5            1 RES     
    6032 C5        -111.4792   -50.4226   211.6572 C5            1 RES     
    6033 C5        -110.7063   -49.1188   211.9261 C5            1 RES     
    6034 C5        -109.5090   -49.2943   212.8614 C5            1 RES     
    6035 H6        -111.1988   -66.6486   209.8665 H6            1 RES     
    6036 H6        -111.8348   -67.8313   208.6781 H6            1 RES     
    6037 H6        -112.6328   -67.6750   210.2879 H6            1 RES     
    6038 H6        -112.5411   -65.5154   208.0702 H6            1 RES     
    6039 H6        -113.9375   -66.5874   208.4455 H6            1 RES     
    6040 H6        -114.3026   -64.3727   209.4048 H6            1 RES     
    6041 H6        -114.1641   -65.6142   210.7002 H6            1 RES     
    6042 H6        -111.9006   -63.6671   209.8456 H6            1 RES     
    6043 H6        -111.8287   -64.8924   211.1747 H6            1 RES     
    6044 H6        -113.7431   -62.4720   211.0235 H6            1 RES     
    6045 H6        -113.7669   -63.7802   212.2831 H6            1 RES     
    6046 H6        -111.5445   -63.2837   213.0160 H6            1 RES     
    6047 H6        -111.3321   -61.9440   211.8374 H6            1 RES     
    6048 H6        -113.5273   -62.0937   214.0150 H6            1 RES     
    6049 H6        -111.9436   -61.3221   214.2517 H6            1 RES     
    6050 H6        -112.8726   -60.1169   211.8616 H6            1 RES     
    6051 H6        -112.5930   -59.3507   213.4375 H6            1 RES     
    6052 H6        -115.1363   -60.6527   212.5257 H6            1 RES     
    6053 H6        -114.7433   -60.6921   215.0035 H6            1 RES     
    6054 H6        -114.9005   -58.9341   215.0709 H6            1 RES     
    6055 H6        -117.3178   -59.2146   214.2790 H6            1 RES     
    6056 H6        -116.9514   -60.9344   213.8833 H6            1 RES     
    6057 H6        -116.9846   -59.8347   216.7516 H6            1 RES     
    6058 H6        -116.4651   -61.4827   216.2310 H6            1 RES     
    6059 H6        -119.2899   -60.3308   215.8182 H6            1 RES     
    6060 H6        -118.6707   -61.8762   215.1322 H6            1 RES     
    6061 H6        -118.2102   -62.8039   217.3661 H6            1 RES     
    6062 H6        -119.9400   -62.3917   217.1104 H6            1 RES     
    6063 H6        -119.6692   -60.2960   218.4287 H6            1 RES     
    6064 H6        -117.9267   -60.7057   218.7293 H6            1 RES     
    6065 H6        -119.2263   -61.7669   219.3757 H6            1 RES     
    6066 H6        -114.3472   -58.5113   211.3243 H6            1 RES     
    6067 H6        -114.4346   -57.7263   212.9308 H6            1 RES     
    6068 H6        -114.9062   -56.2433   211.3536 H6            1 RES     
    6069 H6        -116.3498   -56.0153   210.4957 H6            1 RES     
    6070 H6        -116.3855   -55.8654   213.5604 H6            1 RES     
    6071 H6        -118.5641   -55.7876   212.3482 H6            1 RES     
    6072 H6        -118.2431   -54.3810   213.4117 H6            1 RES     
    6073 H6        -117.7376   -52.9164   211.4839 H6            1 RES     
    6074 H6        -117.8584   -54.3011   210.3758 H6            1 RES     
    6075 H6        -119.8668   -53.0737   210.1326 H6            1 RES     
    6076 H6        -120.2801   -54.5660   211.0081 H6            1 RES     
    6077 H6        -120.3496   -53.2849   213.1704 H6            1 RES     
    6078 H6        -121.5014   -52.6742   211.9410 H6            1 RES     
    6079 H6        -118.8058   -51.3507   212.6872 H6            1 RES     
    6080 H6        -120.4494   -50.8222   213.1603 H6            1 RES     
    6081 H6        -121.0400   -50.4198   210.7548 H6            1 RES     
    6082 H6        -119.6231   -49.4459   211.2979 H6            1 RES     
    6083 H6        -119.3579   -50.8881   210.2707 H6            1 RES     
    6084 H6        -114.5585   -54.5132   213.2757 H6            1 RES     
    6085 H6        -115.9363   -53.3853   213.4506 H6            1 RES     
    6086 H6        -115.7673   -53.1276   210.8092 H6            1 RES     
    6087 H6        -114.3010   -54.1109   210.9068 H6            1 RES     
    6088 H6        -113.8612   -51.7020   210.7897 H6            1 RES     
    6089 H6        -114.8370   -51.3888   212.2681 H6            1 RES     
    6090 H6        -112.2306   -53.0676   212.1817 H6            1 RES     
    6091 H6        -113.2320   -52.7126   213.6376 H6            1 RES     
    6092 H6        -112.8144   -50.2700   213.3833 H6            1 RES     
    6093 H6        -111.3369   -51.2633   213.6505 H6            1 RES     
    6094 H6        -112.2645   -50.1781   210.9137 H6            1 RES     
    6095 H6        -110.7909   -51.1707   211.2065 H6            1 RES     
    6096 H6        -110.3229   -48.7418   210.9527 H6            1 RES     
    6097 H6        -111.3936   -48.3526   212.3457 H6            1 RES     
    6098 H6        -109.8321   -49.6041   213.8756 H6            1 RES     
    6099 H6        -108.9747   -48.3255   212.9585 H6            1 RES     
    6100 H6        -108.8046   -50.0474   212.4496 H6            1 RES     
    6101 C0        -114.5544   -70.6840   212.6941 C0            1 RES     
    6102 C0        -115.5114   -71.8722   212.7960 C0            1 RES     
    6103 C0        -116.7753   -71.4682   213.0692 C0            1 RES     
    6104 S1        -117.8762   -72.7276   213.1300 S1            1 RES     
    6105 C0        -116.6810   -73.8907   212.7829 C0            1 RES     
    6106 C0        -115.4493   -73.2466   212.5753 C0            1 RES     
    6107 C0        -116.8316   -70.0472   213.0572 C0            1 RES     
    6108 C0        -115.6300   -69.5905   212.7848 C0            1 RES     
    6109 C0        -115.6537   -68.1705   212.4867 C0            1 RES     
    6110 C0        -116.9425   -67.6710   212.5967 C0            1 RES     
    6111 S1        -118.1834   -68.8856   213.0879 S1            1 RES     
    6112 H2        -114.5845   -73.7693   212.2260 H2            1 RES     
    6113 H2        -114.8323   -67.6013   212.0867 H2            1 RES     
    6114 N3        -115.9221   -77.5802   212.7475 N3            1 RES     
    6115 C0        -115.7823   -76.2259   212.8234 C0            1 RES     
    6116 C0        -116.8851   -75.3605   212.6776 C0            1 RES     
    6117 C0        -118.1379   -75.9586   212.4629 C0            1 RES     
    6118 N3        -119.3005   -75.2726   212.2987 N3            1 RES     
    6119 S1        -120.3999   -76.4840   212.0567 S1            1 RES     
    6120 N3        -119.4967   -77.8639   212.1478 N3            1 RES     
    6121 C0        -118.2521   -77.3720   212.3777 C0            1 RES     
    6122 C0        -117.1271   -78.1727   212.5251 C0            1 RES     
    6123 H4        -114.8068   -75.8234   213.0319 H4            1 RES     
    6124 C5        -112.9754   -79.4993   208.5438 C5            1 RES     
    6125 C5        -113.5823   -78.0988   208.4452 C5            1 RES     
    6126 C5        -113.5997   -77.3361   209.7818 C5            1 RES     
    6127 C5        -112.2019   -77.0749   210.3768 C5            1 RES     
    6128 C5        -112.3154   -76.2638   211.6791 C5            1 RES     
    6129 C5        -110.9808   -76.1562   212.4303 C5            1 RES     
    6130 C5        -111.1191   -75.4113   213.7795 C5            1 RES     
    6131 C5        -111.1578   -73.8547   213.6766 C5            1 RES     
    6132 C5        -112.4534   -73.1515   214.1868 C5            1 RES     
    6133 C5        -112.7345   -73.4459   215.6893 C5            1 RES     
    6134 C5        -114.2238   -73.2942   216.0508 C5            1 RES     
    6135 C5        -114.5737   -74.0656   217.3414 C5            1 RES     
    6136 C5        -116.0982   -74.1499   217.5380 C5            1 RES     
    6137 C5        -116.5173   -75.1507   218.6298 C5            1 RES     
    6138 C5        -116.0684   -74.7558   220.0323 C5            1 RES     
    6139 C5        -112.3338   -71.6321   213.8381 C5            1 RES     
    6140 C0        -113.4864   -70.5557   213.8692 C0            1 RES     
    6141 C5        -112.7364   -69.1538   213.8353 C5            1 RES     
    6142 C5        -112.6574   -68.4204   215.2160 C5            1 RES     
    6143 C5        -113.9184   -67.5529   215.5392 C5            1 RES     
    6144 C5        -114.0338   -66.2248   214.7546 C5            1 RES     
    6145 C5        -115.3680   -65.4834   214.9552 C5            1 RES     
    6146 C5        -115.5673   -64.8414   216.3415 C5            1 RES     
    6147 C5        -114.5502   -63.7376   216.7036 C5            1 RES     
    6148 C5        -114.5556   -62.5569   215.7271 C5            1 RES     
    6149 C5        -111.3146   -67.6488   215.4416 C5            1 RES     
    6150 C5        -110.7804   -66.7761   214.2765 C5            1 RES     
    6151 C5        -109.5748   -65.8964   214.6779 C5            1 RES     
    6152 C5        -108.3527   -66.6898   215.1780 C5            1 RES     
    6153 C5        -107.1580   -65.7940   215.5629 C5            1 RES     
    6154 C5        -106.5263   -65.0652   214.3609 C5            1 RES     
    6155 C5        -105.3349   -64.1696   214.7456 C5            1 RES     
    6156 C5        -104.1452   -64.9404   215.3197 C5            1 RES     
    6157 H6        -111.9013   -79.4497   208.8143 H6            1 RES     
    6158 H6        -113.0536   -80.0040   207.5573 H6            1 RES     
    6159 H6        -113.5205   -80.1079   209.2963 H6            1 RES     
    6160 H6        -113.0291   -77.5109   207.6823 H6            1 RES     
    6161 H6        -114.6349   -78.2078   208.1015 H6            1 RES     
    6162 H6        -114.1059   -76.3618   209.6083 H6            1 RES     
    6163 H6        -114.2072   -77.9145   210.5125 H6            1 RES     
    6164 H6        -111.5692   -76.5213   209.6490 H6            1 RES     
    6165 H6        -111.7225   -78.0503   210.6038 H6            1 RES     
    6166 H6        -112.7262   -75.2556   211.4573 H6            1 RES     
    6167 H6        -113.0060   -76.8132   212.3486 H6            1 RES     
    6168 H6        -110.6653   -77.1988   212.6572 H6            1 RES     
    6169 H6        -110.1878   -75.6893   211.8074 H6            1 RES     
    6170 H6        -111.9799   -75.8460   214.3267 H6            1 RES     
    6171 H6        -110.2132   -75.6554   214.3741 H6            1 RES     
    6172 H6        -111.0150   -73.5933   212.6040 H6            1 RES     
    6173 H6        -110.2789   -73.4328   214.2106 H6            1 RES     
    6174 H6        -113.2113   -73.6408   213.6170 H6            1 RES     
    6175 H6        -112.5105   -74.5123   215.8630 H6            1 RES     
    6176 H6        -112.0641   -72.8811   216.3727 H6            1 RES     
    6177 H6        -114.5232   -72.2260   216.1027 H6            1 RES     
    6178 H6        -114.8077   -73.7851   215.2442 H6            1 RES     
    6179 H6        -114.0716   -73.6101   218.2216 H6            1 RES     
    6180 H6        -114.2069   -75.1100   217.2273 H6            1 RES     
    6181 H6        -116.5175   -73.1421   217.7422 H6            1 RES     
    6182 H6        -116.5490   -74.5278   216.5929 H6            1 RES     
    6183 H6        -116.1141   -76.1590   218.3855 H6            1 RES     
    6184 H6        -117.6268   -75.2210   218.6296 H6            1 RES     
    6185 H6        -116.4938   -73.7676   220.3050 H6            1 RES     
    6186 H6        -114.9621   -74.7199   220.1012 H6            1 RES     
    6187 H6        -116.4361   -75.5135   220.7574 H6            1 RES     
    6188 H6        -111.9330   -71.5540   212.8030 H6            1 RES     
    6189 H6        -111.5287   -71.2820   214.5256 H6            1 RES     
    6190 H6        -111.6977   -69.3325   213.4863 H6            1 RES     
    6191 H6        -113.0889   -68.4671   213.0533 H6            1 RES     
    6192 H6        -112.6428   -69.2170   215.9952 H6            1 RES     
    6193 H6        -114.8191   -68.1785   215.3575 H6            1 RES     
    6194 H6        -113.9038   -67.2944   216.6197 H6            1 RES     
    6195 H6        -113.2164   -65.5339   215.0243 H6            1 RES     
    6196 H6        -113.9440   -66.4411   213.6800 H6            1 RES     
    6197 H6        -115.4443   -64.6835   214.1891 H6            1 RES     
    6198 H6        -116.2023   -66.1874   214.7618 H6            1 RES     
    6199 H6        -115.5388   -65.6297   217.1219 H6            1 RES     
    6200 H6        -116.5829   -64.3879   216.3612 H6            1 RES     
    6201 H6        -113.5245   -64.1546   216.7688 H6            1 RES     
    6202 H6        -114.8159   -63.3479   217.7100 H6            1 RES     
    6203 H6        -115.5706   -62.1102   215.6617 H6            1 RES     
    6204 H6        -113.8494   -61.7774   216.0837 H6            1 RES     
    6205 H6        -114.2248   -62.8694   214.7155 H6            1 RES     
    6206 H6        -110.5296   -68.4115   215.6302 H6            1 RES     
    6207 H6        -111.4160   -67.0444   216.3693 H6            1 RES     
    6208 H6        -111.5431   -66.0835   213.8931 H6            1 RES     
    6209 H6        -110.4880   -67.4231   213.4254 H6            1 RES     
    6210 H6        -109.2946   -65.3109   213.7782 H6            1 RES     
    6211 H6        -109.8936   -65.1829   215.4695 H6            1 RES     
    6212 H6        -108.0316   -67.4248   214.4086 H6            1 RES     
    6213 H6        -108.6438   -67.2448   216.0942 H6            1 RES     
    6214 H6        -107.4792   -65.0554   216.3300 H6            1 RES     
    6215 H6        -106.3931   -66.4568   216.0179 H6            1 RES     
    6216 H6        -107.2820   -64.4034   213.8917 H6            1 RES     
    6217 H6        -106.1958   -65.8106   213.6049 H6            1 RES     
    6218 H6        -104.9886   -63.6480   213.8266 H6            1 RES     
    6219 H6        -105.6629   -63.3988   215.4763 H6            1 RES     
    6220 H6        -104.4071   -65.4294   216.2794 H6            1 RES     
    6221 H6        -103.3115   -64.2336   215.5174 H6            1 RES     
    6222 H6        -103.7957   -65.7063   214.5956 H6            1 RES     
    6223 C0        -115.9744   -83.0218   211.3023 C0            1 RES     
    6224 C0        -117.2472   -83.8683   211.3368 C0            1 RES     
    6225 C0        -118.2538   -83.2237   211.9743 C0            1 RES     
    6226 S1        -119.6902   -84.0829   211.9857 S1            1 RES     
    6227 C0        -119.0099   -85.3805   211.1164 C0            1 RES     
    6228 C0        -117.6763   -85.0774   210.7931 C0            1 RES     
    6229 C0        -117.8363   -81.9057   212.3075 C0            1 RES     
    6230 C0        -116.6020   -81.7464   211.8859 C0            1 RES     
    6231 C0        -116.1946   -80.3548   211.9409 C0            1 RES     
    6232 C0        -117.2157   -79.5680   212.4519 C0            1 RES     
    6233 S1        -118.7075   -80.4729   212.9124 S1            1 RES     
    6234 H2        -117.0920   -85.6960   210.1458 H2            1 RES     
    6235 H2        -115.2956   -79.9484   211.5105 H2            1 RES     
    6236 N3        -119.5315   -88.9555   210.0503 N3            1 RES     
    6237 C0        -118.9410   -87.7793   210.4070 C0            1 RES     
    6238 C0        -119.7029   -86.6355   210.7196 C0            1 RES     
    6239 C0        -121.1002   -86.7671   210.6590 C0            1 RES     
    6240 N3        -121.9800   -85.7652   210.9258 N3            1 RES     
    6241 S1        -123.4416   -86.4924   210.6617 S1            1 RES     
    6242 N3        -123.0443   -88.0341   210.2221 N3            1 RES     
    6243 C0        -121.6878   -88.0018   210.2741 C0            1 RES     
    6244 C0        -120.8834   -89.0931   209.9731 C0            1 RES     
    6245 H4        -117.8682   -87.7468   210.4785 H4            1 RES     
    6246 C5        -118.0091   -90.3079   204.9622 C5            1 RES     
    6247 C5        -118.1242   -88.8285   205.3326 C5            1 RES     
    6248 C5        -117.6999   -88.5176   206.7790 C5            1 RES     
    6249 C5        -116.2259   -88.8461   207.0879 C5            1 RES     
    6250 C5        -115.8800   -88.4539   208.5348 C5            1 RES     
    6251 C5        -114.4939   -88.9507   208.9699 C5            1 RES     
    6252 C5        -114.1866   -88.6258   210.4511 C5            1 RES     
    6253 C5        -113.7205   -87.1622   210.7261 C5            1 RES     
    6254 C5        -114.6241   -86.3045   211.6647 C5            1 RES     
    6255 C5        -114.7734   -86.9342   213.0805 C5            1 RES     
    6256 C5        -116.0617   -86.4825   213.7933 C5            1 RES     
    6257 C5        -116.4631   -87.4668   214.9128 C5            1 RES     
    6258 C5        -117.8856   -87.1728   215.4224 C5            1 RES     
    6259 C5        -118.4557   -88.2891   216.3159 C5            1 RES     
    6260 C5        -117.7092   -88.4648   217.6336 C5            1 RES     
    6261 C5        -114.0572   -84.8474   211.6628 C5            1 RES     
    6262 C0        -114.7707   -83.5487   212.2032 C0            1 RES     
    6263 C5        -113.6106   -82.4684   212.3297 C5            1 RES     
    6264 C5        -113.0999   -82.2244   213.7891 C5            1 RES     
    6265 C5        -113.9429   -81.1715   214.5816 C5            1 RES     
    6266 C5        -113.7198   -79.6957   214.1756 C5            1 RES     
    6267 C5        -114.6902   -78.7016   214.8390 C5            1 RES     
    6268 C5        -114.4687   -78.4644   216.3451 C5            1 RES     
    6269 C5        -113.1028   -77.8476   216.7164 C5            1 RES     
    6270 C5        -112.8528   -76.4812   216.0697 C5            1 RES     
    6271 C5        -111.5596   -81.9628   213.8803 C5            1 RES     
    6272 C5        -110.9349   -80.9744   212.8617 C5            1 RES     
    6273 C5        -109.4620   -80.6269   213.1753 C5            1 RES     
    6274 C5        -108.5152   -81.8420   213.1877 C5            1 RES     
    6275 C5        -107.0494   -81.4719   213.4919 C5            1 RES     
    6276 C5        -106.3869   -80.6317   212.3828 C5            1 RES     
    6277 C5        -104.9243   -80.2607   212.6875 C5            1 RES     
    6278 C5        -103.9898   -81.4677   212.7825 C5            1 RES     
    6279 H6        -116.9527   -90.6439   204.9876 H6            1 RES     
    6280 H6        -118.3879   -90.4586   203.9288 H6            1 RES     
    6281 H6        -118.6140   -90.9311   205.6546 H6            1 RES     
    6282 H6        -117.5201   -88.2234   204.6237 H6            1 RES     
    6283 H6        -119.1905   -88.5315   205.2192 H6            1 RES     
    6284 H6        -117.8731   -87.4340   206.9565 H6            1 RES     
    6285 H6        -118.3561   -89.0892   207.4720 H6            1 RES     
    6286 H6        -115.5540   -88.3051   206.3863 H6            1 RES     
    6287 H6        -116.0706   -89.9388   206.9669 H6            1 RES     
    6288 H6        -115.9596   -87.3521   208.6530 H6            1 RES     
    6289 H6        -116.6126   -88.9578   209.1952 H6            1 RES     
    6290 H6        -114.5138   -90.0587   208.8698 H6            1 RES     
    6291 H6        -113.6866   -88.5647   208.3110 H6            1 RES     
    6292 H6        -115.0571   -88.9412   211.0611 H6            1 RES     
    6293 H6        -113.3392   -89.2776   210.7525 H6            1 RES     
    6294 H6        -113.6509   -86.6495   209.7404 H6            1 RES     
    6295 H6        -112.6857   -87.1800   211.1317 H6            1 RES     
    6296 H6        -115.5734   -86.3718   211.1822 H6            1 RES     
    6297 H6        -114.8940   -88.0227   212.9452 H6            1 RES     
    6298 H6        -113.8648   -86.8065   213.7078 H6            1 RES     
    6299 H6        -115.9791   -85.4373   214.1594 H6            1 RES     
    6300 H6        -116.8824   -86.5310   213.0473 H6            1 RES     
    6301 H6        -115.7201   -87.4493   215.7387 H6            1 RES     
    6302 H6        -116.4836   -88.4911   214.4783 H6            1 RES     
    6303 H6        -117.9137   -86.1935   215.9454 H6            1 RES     
    6304 H6        -118.5641   -87.1148   214.5418 H6            1 RES     
    6305 H6        -118.4485   -89.2524   215.7585 H6            1 RES     
    6306 H6        -119.5140   -88.0412   216.5492 H6            1 RES     
    6307 H6        -117.7398   -87.5218   218.2182 H6            1 RES     
    6308 H6        -116.6557   -88.7632   217.4579 H6            1 RES     
    6309 H6        -118.2020   -89.2661   218.2253 H6            1 RES     
    6310 H6        -113.8025   -84.5858   210.6117 H6            1 RES     
    6311 H6        -113.0936   -84.9550   212.2135 H6            1 RES     
    6312 H6        -112.7498   -82.8217   211.7239 H6            1 RES     
    6313 H6        -113.8211   -81.5128   211.8297 H6            1 RES     
    6314 H6        -113.2413   -83.1845   214.3368 H6            1 RES     
    6315 H6        -115.0162   -81.4368   214.4665 H6            1 RES     
    6316 H6        -113.6920   -81.2556   215.6606 H6            1 RES     
    6317 H6        -112.6901   -79.3729   214.4079 H6            1 RES     
    6318 H6        -113.8585   -79.6041   213.0884 H6            1 RES     
    6319 H6        -114.6033   -77.7248   214.3184 H6            1 RES     
    6320 H6        -115.7293   -79.0537   214.6796 H6            1 RES     
    6321 H6        -114.5943   -79.4213   216.8928 H6            1 RES     
    6322 H6        -115.2628   -77.7701   216.6984 H6            1 RES     
    6323 H6        -112.2752   -78.5362   216.4496 H6            1 RES     
    6324 H6        -113.0802   -77.7112   217.8191 H6            1 RES     
    6325 H6        -113.6605   -75.7684   216.3407 H6            1 RES     
    6326 H6        -111.8854   -76.0717   216.4299 H6            1 RES     
    6327 H6        -112.7898   -76.5638   214.9653 H6            1 RES     
    6328 H6        -111.0539   -82.9357   213.7037 H6            1 RES     
    6329 H6        -111.3234   -81.6533   214.9218 H6            1 RES     
    6330 H6        -111.4703   -80.0147   212.8326 H6            1 RES     
    6331 H6        -110.9962   -81.3988   211.8397 H6            1 RES     
    6332 H6        -109.1324   -79.9072   212.3978 H6            1 RES     
    6333 H6        -109.4116   -80.1167   214.1625 H6            1 RES     
    6334 H6        -108.5675   -82.3789   212.2159 H6            1 RES     
    6335 H6        -108.8425   -82.5355   213.9903 H6            1 RES     
    6336 H6        -106.9964   -80.9309   214.4623 H6            1 RES     
    6337 H6        -106.4922   -82.4259   213.5952 H6            1 RES     
    6338 H6        -106.9379   -79.6770   212.2638 H6            1 RES     
    6339 H6        -106.4319   -81.1846   211.4192 H6            1 RES     
    6340 H6        -104.5570   -79.6125   211.8621 H6            1 RES     
    6341 H6        -104.8720   -79.6779   213.6326 H6            1 RES     
    6342 H6        -104.2619   -82.1219   213.6351 H6            1 RES     
    6343 H6        -102.9498   -81.1141   212.9468 H6            1 RES     
    6344 H6        -104.0195   -82.0541   211.8400 H6            1 RES     
    6345 C0        -121.5889   -93.4912   207.4243 C0            1 RES     
    6346 C0        -123.0524   -93.9171   207.5459 C0            1 RES     
    6347 C0        -123.6881   -93.2315   208.5262 C0            1 RES     
    6348 S1        -125.3116   -93.6162   208.6599 S1            1 RES     
    6349 C0        -125.2296   -94.7390   207.3814 C0            1 RES     
    6350 C0        -123.9303   -94.7424   206.8459 C0            1 RES     
    6351 C0        -122.8145   -92.2417   209.0552 C0            1 RES     
    6352 C0        -121.6694   -92.3199   208.4155 C0            1 RES     
    6353 C0        -120.8197   -91.1787   208.7008 C0            1 RES     
    6354 C0        -121.4395   -90.3220   209.5979 C0            1 RES     
    6355 S1        -123.0668   -90.8642   210.1582 S1            1 RES     
    6356 H2        -123.6813   -95.2826   205.9575 H2            1 RES     
    6357 H2        -119.9066   -90.9341   208.1860 H2            1 RES     
    6358 N3        -127.0521   -97.5477   205.6555 N3            1 RES     
    6359 C0        -126.0609   -96.7431   206.1345 C0            1 RES     
    6360 C0        -126.3482   -95.5750   206.8690 C0            1 RES     
    6361 C0        -127.7038   -95.2846   207.0957 C0            1 RES     
    6362 N3        -128.1546   -94.1996   207.7803 N3            1 RES     
    6363 S1        -129.7964   -94.3760   207.6898 S1            1 RES     
    6364 N3        -129.9991   -95.7681   206.8245 N3            1 RES     
    6365 C0        -128.7157   -96.1352   206.5756 C0            1 RES     
    6366 C0        -128.3697   -97.2707   205.8548 C0            1 RES     
    6367 H4        -125.0393   -97.0360   205.9681 H4            1 RES     
    6368 C5        -126.7942   -97.7229   200.1838 C5            1 RES     
    6369 C5        -126.3587   -96.4468   200.9057 C5            1 RES     
    6370 C5        -125.6569   -96.7053   202.2508 C5            1 RES     
    6371 C5        -124.3475   -97.5103   202.1342 C5            1 RES     
    6372 C5        -123.6918   -97.6726   203.5165 C5            1 RES     
    6373 C5        -122.5028   -98.6437   203.4998 C5            1 RES     
    6374 C5        -121.9006   -98.8666   204.9076 C5            1 RES     
    6375 C5        -120.9414   -97.7405   205.4045 C5            1 RES     
    6376 C5        -121.3682   -96.9772   206.6962 C5            1 RES     
    6377 C5        -121.5178   -97.9250   207.9219 C5            1 RES     
    6378 C5        -122.4697   -97.3585   208.9919 C5            1 RES     
    6379 C5        -123.0140   -98.4729   209.9113 C5            1 RES     
    6380 C5        -124.1719   -97.9532   210.7825 C5            1 RES     
    6381 C5        -124.9489   -99.0746   211.4953 C5            1 RES     
    6382 C5        -124.1261   -99.8308   212.5325 C5            1 RES     
    6383 C5        -120.3560   -95.8044   206.9070 C5            1 RES     
    6384 C0        -120.5147   -94.5749   207.8822 C0            1 RES     
    6385 C5        -119.0562   -93.9507   207.9928 C5            1 RES     
    6386 C5        -118.2942   -94.2984   209.3152 C5            1 RES     
    6387 C5        -118.6201   -93.3310   210.5006 C5            1 RES     
    6388 C5        -117.9790   -91.9261   210.4110 C5            1 RES     
    6389 C5        -118.4613   -90.9388   211.4893 C5            1 RES     
    6390 C5        -117.9648   -91.2251   212.9194 C5            1 RES     
    6391 C5        -116.4338   -91.1541   213.1069 C5            1 RES     
    6392 C5        -115.8378   -89.7863   212.7580 C5            1 RES     
    6393 C5        -116.7578   -94.5191   209.1156 C5            1 RES     
    6394 C5        -115.9898   -93.4934   208.2422 C5            1 RES     
    6395 C5        -114.4565   -93.6817   208.2882 C5            1 RES     
    6396 C5        -113.9749   -95.0622   207.8029 C5            1 RES     
    6397 C5        -112.4421   -95.2251   207.8469 C5            1 RES     
    6398 C5        -111.7006   -94.3190   206.8448 C5            1 RES     
    6399 C5        -110.1704   -94.4803   206.8902 C5            1 RES     
    6400 C5        -109.6860   -95.8740   206.4876 C5            1 RES     
    6401 H6        -125.9167   -98.3344   199.8915 H6            1 RES     
    6402 H6        -127.3425   -97.4516   199.2565 H6            1 RES     
    6403 H6        -127.4683   -98.3249   200.8295 H6            1 RES     
    6404 H6        -125.6937   -95.8563   200.2404 H6            1 RES     
    6405 H6        -127.2706   -95.8424   201.1080 H6            1 RES     
    6406 H6        -125.4339   -95.7181   202.7108 H6            1 RES     
    6407 H6        -126.3615   -97.2459   202.9206 H6            1 RES     
    6408 H6        -123.6396   -96.9995   201.4456 H6            1 RES     
    6409 H6        -124.5823   -98.5172   201.7296 H6            1 RES     
    6410 H6        -123.3839   -96.6778   203.9036 H6            1 RES     
    6411 H6        -124.4499   -98.1203   204.1886 H6            1 RES     
    6412 H6        -122.9031   -99.6215   203.1509 H6            1 RES     
    6413 H6        -121.7139   -98.3251   202.7849 H6            1 RES     
    6414 H6        -122.7317   -99.0886   205.6070 H6            1 RES     
    6415 H6        -121.2842   -99.7888   204.8495 H6            1 RES     
    6416 H6        -120.8446   -97.0031   204.5762 H6            1 RES     
    6417 H6        -119.9252   -98.1665   205.5509 H6            1 RES     
    6418 H6        -122.3437   -96.6306   206.4380 H6            1 RES     
    6419 H6        -122.0106   -98.8463   207.5669 H6            1 RES     
    6420 H6        -120.5399   -98.2474   208.3405 H6            1 RES     
    6421 H6        -121.9945   -96.5336   209.5637 H6            1 RES     
    6422 H6        -123.3560   -96.9538   208.4598 H6            1 RES     
    6423 H6        -122.1993   -98.9074   210.5293 H6            1 RES     
    6424 H6        -123.4339   -99.2761   209.2657 H6            1 RES     
    6425 H6        -123.7997   -97.2034   211.5123 H6            1 RES     
    6426 H6        -124.9090   -97.4518   210.1159 H6            1 RES     
    6427 H6        -125.3401   -99.7940   210.7414 H6            1 RES     
    6428 H6        -125.8211   -98.6188   212.0123 H6            1 RES     
    6429 H6        -123.7597   -99.1313   213.3127 H6            1 RES     
    6430 H6        -123.2670  -100.3483   212.0593 H6            1 RES     
    6431 H6        -124.7688  -100.5977   213.0161 H6            1 RES     
    6432 H6        -120.1789   -95.3293   205.9164 H6            1 RES     
    6433 H6        -119.4155   -96.3348   207.1857 H6            1 RES     
    6434 H6        -118.4555   -94.3384   207.1433 H6            1 RES     
    6435 H6        -119.0055   -92.8719   207.7905 H6            1 RES     
    6436 H6        -118.6680   -95.2964   209.6409 H6            1 RES     
    6437 H6        -119.7255   -93.2380   210.5716 H6            1 RES     
    6438 H6        -118.2626   -93.7942   211.4451 H6            1 RES     
    6439 H6        -116.8788   -91.9887   210.4742 H6            1 RES     
    6440 H6        -118.2305   -91.4853   209.4352 H6            1 RES     
    6441 H6        -118.1290   -89.9182   211.2054 H6            1 RES     
    6442 H6        -119.5698   -90.9219   211.4903 H6            1 RES     
    6443 H6        -118.3227   -92.2246   213.2423 H6            1 RES     
    6444 H6        -118.4256   -90.4707   213.5946 H6            1 RES     
    6445 H6        -115.9278   -91.9381   212.5073 H6            1 RES     
    6446 H6        -116.2129   -91.3585   214.1768 H6            1 RES     
    6447 H6        -116.3167   -88.9870   213.3629 H6            1 RES     
    6448 H6        -114.7490   -89.7896   212.9765 H6            1 RES     
    6449 H6        -115.9613   -89.5564   211.6799 H6            1 RES     
    6450 H6        -116.6338   -95.4989   208.6074 H6            1 RES     
    6451 H6        -116.2887   -94.6075   210.1198 H6            1 RES     
    6452 H6        -116.1748   -92.4572   208.5594 H6            1 RES     
    6453 H6        -116.3312   -93.5650   207.1902 H6            1 RES     
    6454 H6        -114.0192   -92.8892   207.6466 H6            1 RES     
    6455 H6        -114.1018   -93.5185   209.3298 H6            1 RES     
    6456 H6        -114.3381   -95.2537   206.7701 H6            1 RES     
    6457 H6        -114.3978   -95.8388   208.4738 H6            1 RES     
    6458 H6        -112.0770   -95.0296   208.8792 H6            1 RES     
    6459 H6        -112.2244   -96.2839   207.5962 H6            1 RES     
    6460 H6        -111.9145   -93.2566   207.0793 H6            1 RES     
    6461 H6        -112.0613   -94.5296   205.8143 H6            1 RES     
    6462 H6        -109.7284   -93.7496   206.1780 H6            1 RES     
    6463 H6        -109.7957   -94.2389   207.9084 H6            1 RES     
    6464 H6        -110.0374   -96.6449   207.2026 H6            1 RES     
    6465 H6        -108.5754   -95.8913   206.4913 H6            1 RES     
    6466 H6        -110.0405   -96.1257   205.4658 H6            1 RES     
    6467 C0        -130.8450  -100.3461   202.5757 C0            1 RES     
    6468 C0        -132.3345  -100.3594   202.9209 C0            1 RES     
    6469 C0        -132.5624   -99.8409   204.1515 C0            1 RES     
    6470 S1        -134.1858   -99.7751   204.5538 S1            1 RES     
    6471 C0        -134.6612  -100.4502   203.0638 C0            1 RES     
    6472 C0        -133.5254  -100.6619   202.2638 C0            1 RES     
    6473 C0        -131.3448   -99.3368   204.6862 C0            1 RES     
    6474 C0        -130.3922   -99.5430   203.8050 C0            1 RES     
    6475 C0        -129.1809   -98.8224   204.1499 C0            1 RES     
    6476 C0        -129.3489   -98.1277   205.3382 C0            1 RES     
    6477 S1        -130.9684   -98.3296   206.1081 S1            1 RES     
    6478 H2        -133.5970  -100.9658   201.2413 H2            1 RES     
    6479 H2        -128.3201   -98.7050   203.5145 H2            1 RES     
    6480 N3        -137.5356  -101.9997   201.1859 N3            1 RES     
    6481 C0        -136.2767  -101.6833   201.6036 C0            1 RES     
    6482 C0        -136.0541  -100.7498   202.6359 C0            1 RES     
    6483 C0        -137.1904  -100.1695   203.2235 C0            1 RES     
    6484 N3        -137.1548   -99.2515   204.2260 N3            1 RES     
    6485 S1        -138.7576   -98.9246   204.4691 S1            1 RES     
    6486 N3        -139.5301   -99.8866   203.3711 N3            1 RES     
    6487 C0        -138.4896  -100.5102   202.7608 C0            1 RES     
    6488 C0        -138.6448  -101.4344   201.7359 C0            1 RES     
    6489 H4        -135.4443  -102.1895   201.1476 H4            1 RES     
    6490 C5        -138.1203  -100.6311   195.9113 C5            1 RES     
    6491 C5        -137.1892   -99.7986   196.7940 C5            1 RES     
    6492 C5        -136.4318  -100.6258   197.8479 C5            1 RES     
    6493 C5        -135.4939  -101.6956   197.2546 C5            1 RES     
    6494 C5        -134.7423  -102.4328   198.3765 C5            1 RES     
    6495 C5        -133.9578  -103.6498   197.8661 C5            1 RES     
    6496 C5        -133.2726  -104.4348   199.0099 C5            1 RES     
    6497 C5        -131.9345  -103.8207   199.5269 C5            1 RES     
    6498 C5        -131.8981  -103.3811   201.0231 C5            1 RES     
    6499 C5        -132.1804  -104.5640   201.9948 C5            1 RES     
    6500 C5        -132.7304  -104.0917   203.3537 C5            1 RES     
    6501 C5        -133.4790  -105.2261   204.0857 C5            1 RES     
    6502 C5        -134.2645  -104.6806   205.2919 C5            1 RES     
    6503 C5        -135.2616  -105.6956   205.8793 C5            1 RES     
    6504 C5        -134.5996  -106.9215   206.4985 C5            1 RES     
    6505 C5        -130.5350  -102.6556   201.2684 C5            1 RES     
    6506 C0        -130.1383  -101.7726   202.5138 C0            1 RES     
    6507 C5        -128.5552  -101.6446   202.4356 C5            1 RES     
    6508 C5        -127.7743  -102.5637   203.4336 C5            1 RES     
    6509 C5        -127.5910  -101.9347   204.8542 C5            1 RES     
    6510 C5        -126.5393  -100.8048   204.9531 C5            1 RES     
    6511 C5        -126.5103  -100.0824   206.3123 C5            1 RES     
    6512 C5        -125.9416  -100.9021   207.4863 C5            1 RES     
    6513 C5        -124.4637  -101.3226   207.3354 C5            1 RES     
    6514 C5        -123.5026  -100.1380   207.1906 C5            1 RES     
    6515 C5        -126.4423  -103.1390   202.8471 C5            1 RES     
    6516 C5        -125.5080  -102.1619   202.0876 C5            1 RES     
    6517 C5        -124.1337  -102.7786   201.7417 C5            1 RES     
    6518 C5        -124.2106  -104.0337   200.8517 C5            1 RES     
    6519 C5        -122.8286  -104.6265   200.5100 C5            1 RES     
    6520 C5        -121.9767  -103.7136   199.6067 C5            1 RES     
    6521 C5        -120.5965  -104.3046   199.2673 C5            1 RES     
    6522 C5        -120.6636  -105.5968   198.4518 C5            1 RES     
    6523 H6        -137.5457  -101.3513   195.2943 H6            1 RES     
    6524 H6        -138.6717   -99.9577   195.2210 H6            1 RES     
    6525 H6        -138.8584  -101.1808   196.5332 H6            1 RES     
    6526 H6        -136.4662   -99.2512   196.1528 H6            1 RES     
    6527 H6        -137.8110   -99.0489   197.3319 H6            1 RES     
    6528 H6        -135.8316   -99.9209   198.4633 H6            1 RES     
    6529 H6        -137.1746  -101.1178   198.5139 H6            1 RES     
    6530 H6        -134.7606  -101.2263   196.5631 H6            1 RES     
    6531 H6        -136.1039  -102.4315   196.6896 H6            1 RES     
    6532 H6        -134.0706  -101.7234   198.9056 H6            1 RES     
    6533 H6        -135.5039  -102.8255   199.0785 H6            1 RES     
    6534 H6        -134.7047  -104.3288   197.3979 H6            1 RES     
    6535 H6        -133.2164  -103.3713   197.0865 H6            1 RES     
    6536 H6        -134.0236  -104.6086   199.8069 H6            1 RES     
    6537 H6        -133.0118  -105.4340   198.6007 H6            1 RES     
    6538 H6        -131.7155  -102.9316   198.8938 H6            1 RES     
    6539 H6        -131.1073  -104.5387   199.3370 H6            1 RES     
    6540 H6        -132.7292  -102.7144   201.0796 H6            1 RES     
    6541 H6        -132.9957  -105.1636   201.5549 H6            1 RES     
    6542 H6        -131.3165  -105.2561   202.0952 H6            1 RES     
    6543 H6        -131.9331  -103.6387   203.9801 H6            1 RES     
    6544 H6        -133.4974  -103.3168   203.1446 H6            1 RES     
    6545 H6        -132.7766  -106.0332   204.3852 H6            1 RES     
    6546 H6        -134.2279  -105.6532   203.3821 H6            1 RES     
    6547 H6        -133.5661  -104.3134   206.0735 H6            1 RES     
    6548 H6        -134.8792  -103.8199   204.9446 H6            1 RES     
    6549 H6        -135.9710  -106.0224   205.0863 H6            1 RES     
    6550 H6        -135.8515  -105.1850   206.6713 H6            1 RES     
    6551 H6        -133.9163  -106.6136   207.3172 H6            1 RES     
    6552 H6        -134.0363  -107.4976   205.7365 H6            1 RES     
    6553 H6        -135.3859  -107.5832   206.9216 H6            1 RES     
    6554 H6        -130.3511  -101.9812   200.4025 H6            1 RES     
    6555 H6        -129.7948  -103.4863   201.1963 H6            1 RES     
    6556 H6        -128.2425  -101.9193   201.4062 H6            1 RES     
    6557 H6        -128.1782  -100.6137   202.4848 H6            1 RES     
    6558 H6        -128.4086  -103.4660   203.5928 H6            1 RES     
    6559 H6        -128.5814  -101.5597   205.1920 H6            1 RES     
    6560 H6        -127.2788  -102.7349   205.5589 H6            1 RES     
    6561 H6        -125.5249  -101.1898   204.7505 H6            1 RES     
    6562 H6        -126.7643  -100.0457   204.1898 H6            1 RES     
    6563 H6        -125.9014   -99.1600   206.2073 H6            1 RES     
    6564 H6        -127.5386   -99.7555   206.5670 H6            1 RES     
    6565 H6        -126.5620  -101.8094   207.6390 H6            1 RES     
    6566 H6        -126.0264  -100.2806   208.4050 H6            1 RES     
    6567 H6        -124.3359  -102.0060   206.4712 H6            1 RES     
    6568 H6        -124.1754  -101.8846   208.2499 H6            1 RES     
    6569 H6        -123.5993   -99.4499   208.0573 H6            1 RES     
    6570 H6        -122.4573  -100.5111   207.1512 H6            1 RES     
    6571 H6        -123.6927   -99.5777   206.2523 H6            1 RES     
    6572 H6        -126.7231  -103.9206   202.1096 H6            1 RES     
    6573 H6        -125.8933  -103.6455   203.6707 H6            1 RES     
    6574 H6        -125.2921  -101.2557   202.6713 H6            1 RES     
    6575 H6        -125.9976  -101.8235   201.1526 H6            1 RES     
    6576 H6        -123.5527  -101.9895   201.2214 H6            1 RES     
    6577 H6        -123.6026  -103.0340   202.6851 H6            1 RES     
    6578 H6        -124.7579  -103.8044   199.9119 H6            1 RES     
    6579 H6        -124.7688  -104.8209   201.4003 H6            1 RES     
    6580 H6        -122.2785  -104.8525   201.4499 H6            1 RES     
    6581 H6        -123.0121  -105.5821   199.9766 H6            1 RES     
    6582 H6        -121.7908  -102.7511   200.1248 H6            1 RES     
    6583 H6        -122.5276  -103.5031   198.6640 H6            1 RES     
    6584 H6        -120.0415  -103.5527   198.6648 H6            1 RES     
    6585 H6        -120.0241  -104.4873   200.2024 H6            1 RES     
    6586 H6        -121.1470  -106.4117   199.0273 H6            1 RES     
    6587 H6        -119.6329  -105.9260   198.2012 H6            1 RES     
    6588 H6        -121.2211  -105.4282   197.5064 H6            1 RES     
    6589 C0        -142.4343  -102.5895   198.4736 C0            1 RES     
    6590 C0        -143.7797  -102.2839   199.1325 C0            1 RES     
    6591 C0        -143.6478  -102.1060   200.4690 C0            1 RES     
    6592 S1        -145.0839  -101.7071   201.2306 S1            1 RES     
    6593 C0        -145.9603  -101.7544   199.7706 C0            1 RES     
    6594 C0        -145.0832  -102.0332   198.7086 C0            1 RES     
    6595 C0        -142.2696  -102.1441   200.8182 C0            1 RES     
    6596 C0        -141.5731  -102.3426   199.7219 C0            1 RES     
    6597 C0        -140.1555  -102.1255   199.9436 C0            1 RES     
    6598 C0        -139.9151  -101.7911   201.2677 C0            1 RES     
    6599 S1        -141.3849  -101.7456   202.3136 S1            1 RES     
    6600 H2        -145.3943  -101.9915   197.6865 H2            1 RES     
    6601 H2        -139.4027  -102.0743   199.1760 H2            1 RES     
    6602 N3        -149.4192  -101.8128   198.2799 N3            1 RES     
    6603 C0        -148.0813  -101.9998   198.4653 C0            1 RES     
    6604 C0        -147.4191  -101.5114   199.6096 C0            1 RES     
    6605 C0        -148.2041  -100.8334   200.5570 C0            1 RES     
    6606 N3        -147.7257  -100.2977   201.7116 N3            1 RES     
    6607 S1        -149.0782   -99.6194   202.3789 S1            1 RES     
    6608 N3        -150.2721   -99.9601   201.2897 N3            1 RES     
    6609 C0        -149.5940  -100.6441   200.3324 C0            1 RES     
    6610 C0        -150.1892  -101.1451   199.1821 C0            1 RES     
    6611 H4        -147.5367  -102.5631   197.7283 H4            1 RES     
    6612 C5        -150.2500   -98.8540   193.7421 C5            1 RES     
    6613 C5        -148.9814   -98.6133   194.5617 C5            1 RES     
    6614 C5        -148.4015   -99.8906   195.1948 C5            1 RES     
    6615 C5        -147.9649  -100.9585   194.1725 C5            1 RES     
    6616 C5        -147.3512  -102.1719   194.8922 C5            1 RES     
    6617 C5        -147.0948  -103.3554   193.9484 C5            1 RES     
    6618 C5        -146.5558  -104.6003   194.6927 C5            1 RES     
    6619 C5        -145.0313  -104.5666   195.0237 C5            1 RES     
    6620 C5        -144.6417  -104.6129   196.5334 C5            1 RES     
    6621 C5        -145.1614  -105.8989   197.2399 C5            1 RES     
    6622 C5        -145.3271  -105.7103   198.7594 C5            1 RES     
    6623 C5        -146.2993  -106.7508   199.3555 C5            1 RES     
    6624 C5        -146.6819  -106.3843   200.8008 C5            1 RES     
    6625 C5        -147.8666  -107.2034   201.3440 C5            1 RES     
    6626 C5        -147.5691  -108.6912   201.4942 C5            1 RES     
    6627 C5        -143.0950  -104.4048   196.6278 C5            1 RES     
    6628 C0        -142.2572  -104.0738   197.9227 C0            1 RES     
    6629 C5        -140.7489  -104.3792   197.5219 C5            1 RES     
    6630 C5        -140.1856  -105.7308   198.0754 C5            1 RES     
    6631 C5        -139.6067  -105.6232   199.5247 C5            1 RES     
    6632 C5        -138.2367  -104.9152   199.6453 C5            1 RES     
    6633 C5        -137.7793  -104.6609   201.0931 C5            1 RES     
    6634 C5        -137.3563  -105.9135   201.8841 C5            1 RES     
    6635 C5        -136.1383  -106.6692   201.3102 C5            1 RES     
    6636 C5        -134.8690  -105.8144   201.2334 C5            1 RES     
    6637 C5        -139.2162  -106.4595   197.0862 C5            1 RES     
    6638 C5        -138.1268  -105.6070   196.3855 C5            1 RES     
    6639 C5        -137.0980  -106.4558   195.6047 C5            1 RES     
    6640 C5        -137.7111  -107.3208   194.4871 C5            1 RES     
    6641 C5        -136.6666  -108.1512   193.7141 C5            1 RES     
    6642 C5        -135.6956  -107.2921   192.8811 C5            1 RES     
    6643 C5        -134.6519  -108.1210   192.1110 C5            1 RES     
    6644 C5        -135.2576  -109.0445   191.0530 C5            1 RES     
    6645 H6        -150.0395   -99.4932   192.8608 H6            1 RES     
    6646 H6        -150.6376   -97.8815   193.3706 H6            1 RES     
    6647 H6        -151.0337   -99.3308   194.3682 H6            1 RES     
    6648 H6        -148.2151   -98.1286   193.9202 H6            1 RES     
    6649 H6        -149.2371   -97.9106   195.3857 H6            1 RES     
    6650 H6        -147.5215   -99.5953   195.8063 H6            1 RES     
    6651 H6        -149.1644  -100.3263   195.8772 H6            1 RES     
    6652 H6        -147.2220  -100.5334   193.4628 H6            1 RES     
    6653 H6        -148.8574  -101.2942   193.6036 H6            1 RES     
    6654 H6        -146.4150  -101.8673   195.4070 H6            1 RES     
    6655 H6        -148.0935  -102.5221   195.6360 H6            1 RES     
    6656 H6        -148.0825  -103.6289   193.5152 H6            1 RES     
    6657 H6        -146.4201  -103.0812   193.1091 H6            1 RES     
    6658 H6        -147.2023  -104.7812   195.5751 H6            1 RES     
    6659 H6        -146.7016  -105.4671   194.0135 H6            1 RES     
    6660 H6        -144.6207  -103.6303   194.5832 H6            1 RES     
    6661 H6        -144.5246  -105.3998   194.4900 H6            1 RES     
    6662 H6        -145.1878  -103.7864   196.9297 H6            1 RES     
    6663 H6        -146.1825  -106.0889   196.8674 H6            1 RES     
    6664 H6        -144.5711  -106.8037   196.9786 H6            1 RES     
    6665 H6        -144.3452  -105.7037   199.2781 H6            1 RES     
    6666 H6        -145.8148  -104.7252   198.9153 H6            1 RES     
    6667 H6        -145.8700  -107.7736   199.2920 H6            1 RES     
    6668 H6        -147.2383  -106.7247   198.7588 H6            1 RES     
    6669 H6        -145.7990  -106.4738   201.4685 H6            1 RES     
    6670 H6        -147.0184  -105.3232   200.8117 H6            1 RES     
    6671 H6        -148.7479  -107.0706   200.6774 H6            1 RES     
    6672 H6        -148.1363  -106.8026   202.3452 H6            1 RES     
    6673 H6        -146.7147  -108.8415   202.1866 H6            1 RES     
    6674 H6        -147.3417  -109.1531   200.5120 H6            1 RES     
    6675 H6        -148.4628  -109.1987   201.9169 H6            1 RES     
    6676 H6        -142.8209  -103.5869   195.9248 H6            1 RES     
    6677 H6        -142.6902  -105.3512   196.1988 H6            1 RES     
    6678 H6        -140.6928  -104.4169   196.4137 H6            1 RES     
    6679 H6        -140.0481  -103.5574   197.7243 H6            1 RES     
    6680 H6        -141.0544  -106.4236   198.1582 H6            1 RES     
    6681 H6        -140.3586  -105.1008   200.1550 H6            1 RES     
    6682 H6        -139.4822  -106.6485   199.9341 H6            1 RES     
    6683 H6        -137.4466  -105.4930   199.1352 H6            1 RES     
    6684 H6        -138.3017  -103.9347   199.1512 H6            1 RES     
    6685 H6        -136.9199  -103.9582   201.0720 H6            1 RES     
    6686 H6        -138.5943  -104.1474   201.6420 H6            1 RES     
    6687 H6        -138.2147  -106.6129   201.9563 H6            1 RES     
    6688 H6        -137.1003  -105.5905   202.9173 H6            1 RES     
    6689 H6        -136.3671  -107.0768   200.3043 H6            1 RES     
    6690 H6        -135.9277  -107.5315   201.9790 H6            1 RES     
    6691 H6        -134.6092  -105.4119   202.2356 H6            1 RES     
    6692 H6        -134.0232  -106.4378   200.8735 H6            1 RES     
    6693 H6        -134.9918  -104.9743   200.5195 H6            1 RES     
    6694 H6        -139.8409  -106.8791   196.2694 H6            1 RES     
    6695 H6        -138.7567  -107.3178   197.6233 H6            1 RES     
    6696 H6        -137.5428  -105.0102   197.1006 H6            1 RES     
    6697 H6        -138.6024  -104.8864   195.6905 H6            1 RES     
    6698 H6        -136.3671  -105.7457   195.1660 H6            1 RES     
    6699 H6        -136.5551  -107.1147   196.3178 H6            1 RES     
    6700 H6        -138.2773  -106.6824   193.7750 H6            1 RES     
    6701 H6        -138.4162  -108.0438   194.9479 H6            1 RES     
    6702 H6        -136.0966  -108.7875   194.4264 H6            1 RES     
    6703 H6        -137.2297  -108.8169   193.0277 H6            1 RES     
    6704 H6        -135.1301  -106.6164   193.5540 H6            1 RES     
    6705 H6        -136.2718  -106.6690   192.1626 H6            1 RES     
    6706 H6        -133.9690  -107.4136   191.5917 H6            1 RES     
    6707 H6        -134.0473  -108.7226   192.8239 H6            1 RES     
    6708 H6        -135.8984  -109.8218   191.5159 H6            1 RES     
    6709 H6        -134.4405  -109.5619   190.5069 H6            1 RES     
    6710 H6        -135.8543  -108.4570   190.3237 H6            1 RES     
    6711 C0        -154.5649  -100.1806   196.6801 C0            1 RES     
    6712 C0        -155.6262   -99.7158   197.6779 C0            1 RES     
    6713 C0        -155.2567   -99.9814   198.9538 C0            1 RES     
    6714 S1        -156.3571   -99.4358   200.0909 S1            1 RES     
    6715 C0        -157.3951   -98.8054   198.8963 C0            1 RES     
    6716 C0        -156.8184   -98.9960   197.6291 C0            1 RES     
    6717 C0        -153.9348  -100.5059   198.9648 C0            1 RES     
    6718 C0        -153.5046  -100.5624   197.7245 C0            1 RES     
    6719 C0        -152.0791  -100.8275   197.6657 C0            1 RES     
    6720 C0        -151.5582  -100.9769   198.9420 C0            1 RES     
    6721 S1        -152.7675  -100.8281   200.2731 S1            1 RES     
    6722 H2        -157.2380   -98.5714   196.7421 H2            1 RES     
    6723 H2        -151.4675  -100.7678   196.7820 H2            1 RES     
    6724 N3        -160.8501   -97.4499   198.2518 N3            1 RES     
    6725 C0        -159.6381   -98.0513   198.0821 C0            1 RES     
    6726 C0        -158.6978   -98.1260   199.1294 C0            1 RES     
    6727 C0        -159.0723   -97.5629   200.3607 C0            1 RES     
    6728 N3        -158.2863   -97.5456   201.4702 N3            1 RES     
    6729 S1        -159.2293   -96.7407   202.5645 S1            1 RES     
    6730 N3        -160.6088   -96.3976   201.7235 N3            1 RES     
    6731 C0        -160.3375   -96.9333   200.5056 C0            1 RES     
    6732 C0        -161.2203   -96.8872   199.4346 C0            1 RES     
    6733 H4        -159.4204   -98.5036   197.1307 H4            1 RES     
    6734 C5        -161.2793   -93.1843   194.8377 C5            1 RES     
    6735 C5        -159.9010   -93.5608   195.3834 C5            1 RES     
    6736 C5        -159.6954   -95.0765   195.5533 C5            1 RES     
    6737 C5        -159.7859   -95.8762   194.2385 C5            1 RES     
    6738 C5        -159.5152   -97.3683   194.4977 C5            1 RES     
    6739 C5        -159.8011   -98.2459   193.2708 C5            1 RES     
    6740 C5        -159.6072   -99.7530   193.5626 C5            1 RES     
    6741 C5        -158.1274  -100.2478   193.5402 C5            1 RES     
    6742 C5        -157.5677  -100.8414   194.8696 C5            1 RES     
    6743 C5        -158.3802  -102.0774   195.3546 C5            1 RES     
    6744 C5        -158.2592  -102.3030   196.8733 C5            1 RES     
    6745 C5        -159.4279  -103.1550   197.4131 C5            1 RES     
    6746 C5        -159.4605  -103.1354   198.9520 C5            1 RES     
    6747 C5        -160.7613  -103.7099   199.5413 C5            1 RES     
    6748 C5        -160.9565  -105.1973   199.2689 C5            1 RES     
    6749 C5        -156.0425  -101.1138   194.6591 C5            1 RES     
    6750 C0        -154.9696  -101.4258   195.7725 C0            1 RES     
    6751 C5        -153.7202  -102.0117   194.9823 C5            1 RES     
    6752 C5        -153.5657  -103.5674   195.0633 C5            1 RES     
    6753 C5        -152.7867  -104.0559   196.3289 C5            1 RES     
    6754 C5        -151.2568  -103.8294   196.2997 C5            1 RES     
    6755 C5        -150.5428  -104.1492   197.6256 C5            1 RES     
    6756 C5        -150.4530  -105.6444   197.9859 C5            1 RES     
    6757 C5        -149.6481  -106.5097   196.9922 C5            1 RES     
    6758 C5        -148.1911  -106.0629   196.8332 C5            1 RES     
    6759 C5        -153.0420  -104.2165   193.7391 C5            1 RES     
    6760 C5        -151.8410  -103.5386   193.0300 C5            1 RES     
    6761 C5        -151.2725  -104.3752   191.8615 C5            1 RES     
    6762 C5        -152.2883  -104.6664   190.7404 C5            1 RES     
    6763 C5        -151.6979  -105.4928   189.5800 C5            1 RES     
    6764 C5        -150.6237  -104.7369   188.7739 C5            1 RES     
    6765 C5        -150.0332  -105.5626   187.6168 C5            1 RES     
    6766 C5        -151.0531  -105.9267   186.5369 C5            1 RES     
    6767 H6        -161.4186   -93.5698   193.8074 H6            1 RES     
    6768 H6        -161.3702   -92.0777   194.8008 H6            1 RES     
    6769 H6        -162.0808   -93.5829   195.4951 H6            1 RES     
    6770 H6        -159.1153   -93.1456   194.7172 H6            1 RES     
    6771 H6        -159.7909   -93.0878   196.3845 H6            1 RES     
    6772 H6        -158.6906   -95.2330   196.0025 H6            1 RES     
    6773 H6        -160.4560   -95.4599   196.2689 H6            1 RES     
    6774 H6        -159.0513   -95.4889   193.4992 H6            1 RES     
    6775 H6        -160.8095   -95.7655   193.8230 H6            1 RES     
    6776 H6        -158.4685   -97.5039   194.8449 H6            1 RES     
    6777 H6        -160.2196   -97.6973   195.2866 H6            1 RES     
    6778 H6        -160.8740   -98.0914   193.0197 H6            1 RES     
    6779 H6        -159.1984   -97.9394   192.3889 H6            1 RES     
    6780 H6        -160.1466   -99.9947   194.5006 H6            1 RES     
    6781 H6        -160.1260  -100.3055   192.7506 H6            1 RES     
    6782 H6        -157.4954   -99.3786   193.2497 H6            1 RES     
    6783 H6        -158.0061  -100.9956   192.7267 H6            1 RES     
    6784 H6        -157.7472  -100.0484   195.5605 H6            1 RES     
    6785 H6        -159.4481  -101.8549   195.1879 H6            1 RES     
    6786 H6        -158.1666  -102.9938   194.7631 H6            1 RES     
    6787 H6        -157.2683  -102.7249   197.1443 H6            1 RES     
    6788 H6        -158.3653  -101.3112   197.3607 H6            1 RES     
    6789 H6        -159.3757  -104.1920   197.0175 H6            1 RES     
    6790 H6        -160.3788  -102.6925   197.0664 H6            1 RES     
    6791 H6        -158.5730  -103.6609   199.3638 H6            1 RES     
    6792 H6        -159.4206  -102.0742   199.2859 H6            1 RES     
    6793 H6        -161.6328  -103.1456   199.1403 H6            1 RES     
    6794 H6        -160.7395  -103.5607   200.6427 H6            1 RES     
    6795 H6        -160.1123  -105.7775   199.6963 H6            1 RES     
    6796 H6        -161.0354  -105.3960   198.1808 H6            1 RES     
    6797 H6        -161.8994  -105.5335   199.7516 H6            1 RES     
    6798 H6        -155.6140  -100.2376   194.1235 H6            1 RES     
    6799 H6        -156.0392  -101.9670   193.9411 H6            1 RES     
    6800 H6        -153.8357  -101.7377   193.9126 H6            1 RES     
    6801 H6        -152.7654  -101.5169   195.2078 H6            1 RES     
    6802 H6        -154.5945  -103.9805   195.1755 H6            1 RES     
    6803 H6        -153.2264  -103.5515   197.2165 H6            1 RES     
    6804 H6        -152.9536  -105.1478   196.4486 H6            1 RES     
    6805 H6        -150.7832  -104.4304   195.5043 H6            1 RES     
    6806 H6        -151.0614  -102.7704   196.0760 H6            1 RES     
    6807 H6        -149.5109  -103.7426   197.5761 H6            1 RES     
    6808 H6        -151.0557  -103.6114   198.4482 H6            1 RES     
    6809 H6        -151.4759  -106.0634   198.0842 H6            1 RES     
    6810 H6        -149.9622  -105.7236   198.9809 H6            1 RES     
    6811 H6        -150.1379  -106.5235   195.9970 H6            1 RES     
    6812 H6        -149.6441  -107.5527   197.3759 H6            1 RES     
    6813 H6        -147.6747  -106.0614   197.8167 H6            1 RES     
    6814 H6        -147.6595  -106.7652   196.1567 H6            1 RES     
    6815 H6        -148.1270  -105.0517   196.3819 H6            1 RES     
    6816 H6        -153.8785  -104.1852   193.0092 H6            1 RES     
    6817 H6        -152.8229  -105.2873   193.9431 H6            1 RES     
    6818 H6        -150.9979  -103.3667   193.7142 H6            1 RES     
    6819 H6        -152.1429  -102.5429   192.6480 H6            1 RES     
    6820 H6        -150.4165  -103.8034   191.4477 H6            1 RES     
    6821 H6        -150.8848  -105.3387   192.2598 H6            1 RES     
    6822 H6        -152.7043  -103.7152   190.3434 H6            1 RES     
    6823 H6        -153.1213  -105.2637   191.1662 H6            1 RES     
    6824 H6        -151.2775  -106.4431   189.9767 H6            1 RES     
    6825 H6        -152.5403  -105.7419   188.9022 H6            1 RES     
    6826 H6        -149.7776  -104.4752   189.4409 H6            1 RES     
    6827 H6        -151.0551  -103.7951   188.3696 H6            1 RES     
    6828 H6        -149.2342  -104.9561   187.1370 H6            1 RES     
    6829 H6        -149.5690  -106.4910   188.0145 H6            1 RES     
    6830 H6        -151.8439  -106.5924   186.9375 H6            1 RES     
    6831 H6        -150.5392  -106.4695   185.7153 H6            1 RES     
    6832 H6        -151.5169  -105.0086   186.1186 H6            1 RES     
    6833 C0        -165.3328   -94.0431   198.2789 C0            1 RES     
    6834 C0        -166.0286   -93.6118   199.5703 C0            1 RES     
    6835 C0        -165.5932   -94.3319   200.6320 C0            1 RES     
    6836 S1        -166.2792   -93.8566   202.0828 S1            1 RES     
    6837 C0        -167.2058   -92.6389   201.3339 C0            1 RES     
    6838 C0        -166.9087   -92.6045   199.9608 C0            1 RES     
    6839 C0        -164.5326   -95.1862   200.2221 C0            1 RES     
    6840 C0        -164.3240   -94.9958   198.9388 C0            1 RES     
    6841 C0        -163.0905   -95.6217   198.5001 C0            1 RES     
    6842 C0        -162.4751   -96.2783   199.5551 C0            1 RES     
    6843 S1        -163.3672   -96.1917   201.1213 S1            1 RES     
    6844 H2        -167.2836   -91.8389   199.3155 H2            1 RES     
    6845 H2        -162.6240   -95.4806   197.5404 H2            1 RES     
    6846 N3        -170.0692   -90.2400   201.8191 N3            1 RES     
    6847 C0        -169.1620   -91.0808   201.2452 C0            1 RES     
    6848 C0        -168.1628   -91.7199   202.0065 C0            1 RES     
    6849 C0        -168.1526   -91.4602   203.3870 C0            1 RES     
    6850 N3        -167.2581   -91.9902   204.2635 N3            1 RES     
    6851 S1        -167.7171   -91.3095   205.6990 S1            1 RES     
    6852 N3        -169.0081   -90.3620   205.2944 N3            1 RES     
    6853 C0        -169.1035   -90.5714   203.9562 C0            1 RES     
    6854 C0        -170.0619   -89.9677   203.1527 C0            1 RES     
    6855 H4        -169.2424   -91.2769   200.1906 H4            1 RES     
    6856 C5        -169.5325   -85.2216   199.6827 C5            1 RES     
    6857 C5        -168.2952   -86.1130   199.8005 C5            1 RES     
    6858 C5        -168.5826   -87.6059   199.5608 C5            1 RES     
    6859 C5        -169.1168   -87.9265   198.1509 C5            1 RES     
    6860 C5        -169.3232   -89.4422   197.9865 C5            1 RES     
    6861 C5        -170.0532   -89.8048   196.6854 C5            1 RES     
    6862 C5        -170.3316   -91.3222   196.5658 C5            1 RES     
    6863 C5        -169.1186   -92.1839   196.0957 C5            1 RES     
    6864 C5        -168.6070   -93.2729   197.0884 C5            1 RES     
    6865 C5        -169.7072   -94.3159   197.4416 C5            1 RES     
    6866 C5        -169.4563   -95.0006   198.7981 C5            1 RES     
    6867 C5        -170.7536   -95.6086   199.3730 C5            1 RES     
    6868 C5        -170.5617   -96.0319   200.8406 C5            1 RES     
    6869 C5        -171.8832   -96.3636   201.5569 C5            1 RES     
    6870 C5        -172.5972   -97.5883   200.9958 C5            1 RES     
    6871 C5        -167.3043   -93.8891   196.4822 C5            1 RES     
    6872 C0        -166.2509   -94.8017   197.2207 C0            1 RES     
    6873 C5        -165.3905   -95.4574   196.0550 C5            1 RES     
    6874 C5        -165.7514   -96.9463   195.7335 C5            1 RES     
    6875 C5        -165.0095   -97.9822   196.6411 C5            1 RES     
    6876 C5        -163.5112   -98.1968   196.3217 C5            1 RES     
    6877 C5        -162.7654   -99.0779   197.3403 C5            1 RES     
    6878 C5        -163.1274  -100.5751   197.3117 C5            1 RES     
    6879 C5        -162.8031  -101.3014   195.9883 C5            1 RES     
    6880 C5        -161.3180  -101.2563   195.6141 C5            1 RES     
    6881 C5        -165.6640   -97.2993   194.2113 C5            1 RES     
    6882 C5        -164.4181   -96.8099   193.4284 C5            1 RES     
    6883 C5        -164.3293   -97.3925   191.9997 C5            1 RES     
    6884 C5        -165.5306   -97.0449   191.1001 C5            1 RES     
    6885 C5        -165.4169   -97.6266   189.6765 C5            1 RES     
    6886 C5        -164.2770   -97.0019   188.8486 C5            1 RES     
    6887 C5        -164.1625   -97.5841   187.4282 C5            1 RES     
    6888 C5        -165.3861   -97.3140   186.5514 C5            1 RES     
    6889 H6        -169.9348   -85.2333   198.6495 H6            1 RES     
    6890 H6        -169.2552   -84.1739   199.9267 H6            1 RES     
    6891 H6        -170.3203   -85.5530   200.3920 H6            1 RES     
    6892 H6        -167.5179   -85.7595   199.0903 H6            1 RES     
    6893 H6        -167.8952   -86.0047   200.8331 H6            1 RES     
    6894 H6        -167.6343   -88.1628   199.7228 H6            1 RES     
    6895 H6        -169.3190   -87.9518   200.3195 H6            1 RES     
    6896 H6        -168.4066   -87.5627   197.3765 H6            1 RES     
    6897 H6        -170.0932   -87.4159   198.0143 H6            1 RES     
    6898 H6        -168.3431   -89.9620   198.0475 H6            1 RES     
    6899 H6        -169.9788   -89.7757   198.8146 H6            1 RES     
    6900 H6        -171.0380   -89.2884   196.7257 H6            1 RES     
    6901 H6        -169.5128   -89.4361   195.7871 H6            1 RES     
    6902 H6        -170.7835   -91.6659   197.5181 H6            1 RES     
    6903 H6        -171.1128   -91.4436   195.7856 H6            1 RES     
    6904 H6        -168.2812   -91.4822   195.8815 H6            1 RES     
    6905 H6        -169.3677   -92.6634   195.1242 H6            1 RES     
    6906 H6        -168.4145   -92.6998   197.9677 H6            1 RES     
    6907 H6        -170.6529   -93.7635   197.5764 H6            1 RES     
    6908 H6        -169.8950   -95.0405   196.6200 H6            1 RES     
    6909 H6        -168.6340   -95.7441   198.7327 H6            1 RES     
    6910 H6        -169.1577   -94.2069   199.5147 H6            1 RES     
    6911 H6        -171.1046   -96.4552   198.7449 H6            1 RES     
    6912 H6        -171.5357   -94.8171   199.3673 H6            1 RES     
    6913 H6        -169.8505   -96.8822   200.9074 H6            1 RES     
    6914 H6        -170.1255   -95.1709   201.3953 H6            1 RES     
    6915 H6        -172.5652   -95.4855   201.5057 H6            1 RES     
    6916 H6        -171.6590   -96.5557   202.6286 H6            1 RES     
    6917 H6        -171.9423   -98.4811   201.0744 H6            1 RES     
    6918 H6        -172.8893   -97.4293   199.9379 H6            1 RES     
    6919 H6        -173.5206   -97.7717   201.5862 H6            1 RES     
    6920 H6        -166.6888   -93.0520   196.0836 H6            1 RES     
    6921 H6        -167.6850   -94.4597   195.6030 H6            1 RES     
    6922 H6        -165.5574   -94.8614   195.1332 H6            1 RES     
    6923 H6        -164.3040   -95.3396   196.1688 H6            1 RES     
    6924 H6        -166.8325   -97.0674   195.9749 H6            1 RES     
    6925 H6        -165.1278   -97.6572   197.6975 H6            1 RES     
    6926 H6        -165.5107   -98.9682   196.5369 H6            1 RES     
    6927 H6        -163.3804   -98.6465   195.3223 H6            1 RES     
    6928 H6        -163.0088   -97.2184   196.3134 H6            1 RES     
    6929 H6        -161.6748   -98.9819   197.1561 H6            1 RES     
    6930 H6        -162.9501   -98.6828   198.3596 H6            1 RES     
    6931 H6        -164.2068  -100.6992   197.5372 H6            1 RES     
    6932 H6        -162.5563  -101.0766   198.1238 H6            1 RES     
    6933 H6        -163.4041  -100.8852   195.1541 H6            1 RES     
    6934 H6        -163.0917  -102.3681   196.1069 H6            1 RES     
    6935 H6        -160.6978  -101.6879   196.4284 H6            1 RES     
    6936 H6        -161.1500  -101.8496   194.6905 H6            1 RES     
    6937 H6        -160.9858  -100.2180   195.4089 H6            1 RES     
    6938 H6        -166.5363   -96.8219   193.7167 H6            1 RES     
    6939 H6        -165.7864   -98.3993   194.1049 H6            1 RES     
    6940 H6        -163.4787   -97.0901   193.9259 H6            1 RES     
    6941 H6        -164.4229   -95.7033   193.3677 H6            1 RES     
    6942 H6        -163.3990   -96.9895   191.5490 H6            1 RES     
    6943 H6        -164.2315   -98.4987   192.0641 H6            1 RES     
    6944 H6        -165.6587   -95.9424   191.0405 H6            1 RES     
    6945 H6        -166.4463   -97.4812   191.5510 H6            1 RES     
    6946 H6        -165.2845   -98.7294   189.7351 H6            1 RES     
    6947 H6        -166.3805   -97.4191   189.1669 H6            1 RES     
    6948 H6        -163.3073   -97.1959   189.3499 H6            1 RES     
    6949 H6        -164.4236   -95.9016   188.7833 H6            1 RES     
    6950 H6        -163.2831   -97.1140   186.9361 H6            1 RES     
    6951 H6        -163.9818   -98.6795   187.4830 H6            1 RES     
    6952 H6        -166.2886   -97.8173   186.9530 H6            1 RES     
    6953 H6        -165.2020   -97.7142   185.5318 H6            1 RES     
    6954 H6        -165.5727   -96.2221   186.4747 H6            1 RES     
    6955 C0        -173.1163   -85.8737   203.6502 C0            1 RES     
    6956 C0        -173.4412   -85.6618   205.1293 C0            1 RES     
    6957 C0        -173.1251   -86.7530   205.8672 C0            1 RES     
    6958 S1        -173.4039   -86.5503   207.5051 S1            1 RES     
    6959 C0        -173.9691   -84.9577   207.2898 C0            1 RES     
    6960 C0        -173.8731   -84.6080   205.9321 C0            1 RES     
    6961 C0        -172.4768   -87.7121   205.0411 C0            1 RES     
    6962 C0        -172.3989   -87.2213   203.8247 C0            1 RES     
    6963 C0        -171.5175   -88.0118   202.9857 C0            1 RES     
    6964 C0        -171.0135   -89.0936   203.6917 C0            1 RES     
    6965 S1        -171.5973   -89.2219   205.3943 S1            1 RES     
    6966 H2        -174.0591   -83.6140   205.5850 H2            1 RES     
    6967 H2        -171.1700   -87.7331   202.0058 H2            1 RES     
    6968 N3        -175.7759   -82.1020   208.9541 N3            1 RES     
    6969 C0        -175.2892   -82.9576   208.0105 C0            1 RES     
    6970 C0        -174.4625   -84.0455   208.3563 C0            1 RES     
    6971 C0        -174.1732   -84.2150   209.7204 C0            1 RES     
    6972 N3        -173.3918   -85.2074   210.2242 N3            1 RES     
    6973 S1        -173.3929   -84.8763   211.8444 S1            1 RES     
    6974 N3        -174.3393   -83.5289   211.9738 N3            1 RES     
    6975 C0        -174.6855   -83.3019   210.6805 C0            1 RES     
    6976 C0        -175.4918   -82.2455   210.2775 C0            1 RES     
    6977 H4        -175.5772   -82.8057   206.9852 H4            1 RES     
    6978 C5        -173.9092   -77.0412   207.9844 C5            1 RES     
    6979 C5        -173.0344   -78.2383   207.6089 C5            1 RES     
    6980 C5        -173.8316   -79.4517   207.0983 C5            1 RES     
    6981 C5        -174.6340   -79.1820   205.8101 C5            1 RES     
    6982 C5        -175.3526   -80.4611   205.3471 C5            1 RES     
    6983 C5        -176.3364   -80.2065   204.1962 C5            1 RES     
    6984 C5        -177.1164   -81.4800   203.7914 C5            1 RES     
    6985 C5        -176.3368   -82.4711   202.8722 C5            1 RES     
    6986 C5        -176.0819   -83.9008   203.4417 C5            1 RES     
    6987 C5        -177.4049   -84.6480   203.7799 C5            1 RES     
    6988 C5        -177.2078   -85.7413   204.8466 C5            1 RES     
    6989 C5        -178.5392   -86.1004   205.5406 C5            1 RES     
    6990 C5        -178.2949   -86.9707   206.7867 C5            1 RES     
    6991 C5        -179.5373   -87.1118   207.6845 C5            1 RES     
    6992 C5        -180.6885   -87.8663   207.0286 C5            1 RES     
    6993 C5        -175.1561   -84.6529   202.4308 C5            1 RES     
    6994 C0        -174.3728   -85.9993   202.6790 C0            1 RES     
    6995 C5        -173.9513   -86.4993   201.2294 C5            1 RES     
    6996 C5        -174.8272   -87.6645   200.6588 C5            1 RES     
    6997 C5        -174.3517   -89.0855   201.1082 C5            1 RES     
    6998 C5        -173.0701   -89.6095   200.4186 C5            1 RES     
    6999 C5        -172.5240   -90.9225   201.0082 C5            1 RES     
    7000 C5        -173.3626   -92.1807   200.7130 C5            1 RES     
    7001 C5        -173.4867   -92.5485   199.2186 C5            1 RES     
    7002 C5        -172.1388   -92.8154   198.5406 C5            1 RES     
    7003 C5        -175.0762   -87.5663   199.1169 C5            1 RES     
    7004 C5        -173.8614   -87.2403   198.2100 C5            1 RES     
    7005 C5        -174.1723   -87.3796   196.7025 C5            1 RES     
    7006 C5        -175.3036   -86.4608   196.2034 C5            1 RES     
    7007 C5        -175.5902   -86.6079   194.6953 C5            1 RES     
    7008 C5        -174.4357   -86.1152   193.8013 C5            1 RES     
    7009 C5        -174.7211   -86.2639   192.2960 C5            1 RES     
    7010 C5        -175.8959   -85.4163   191.8054 C5            1 RES     
    7011 H6        -174.4333   -76.6364   207.0950 H6            1 RES     
    7012 H6        -173.2686   -76.2331   208.3974 H6            1 RES     
    7013 H6        -174.6547   -77.3301   208.7554 H6            1 RES     
    7014 H6        -172.2916   -77.9260   206.8446 H6            1 RES     
    7015 H6        -172.4805   -78.5540   208.5208 H6            1 RES     
    7016 H6        -173.1091   -80.2749   206.9079 H6            1 RES     
    7017 H6        -174.5270   -79.7828   207.9010 H6            1 RES     
    7018 H6        -173.9594   -78.8226   205.0026 H6            1 RES     
    7019 H6        -175.3945   -78.4008   206.0201 H6            1 RES     
    7020 H6        -174.6024   -81.2296   205.0626 H6            1 RES     
    7021 H6        -175.9588   -80.8239   206.2002 H6            1 RES     
    7022 H6        -177.0780   -79.4694   204.5767 H6            1 RES     
    7023 H6        -175.8359   -79.7587   203.3108 H6            1 RES     
    7024 H6        -177.5185   -81.9458   204.7137 H6            1 RES     
    7025 H6        -177.9949   -81.1430   203.2010 H6            1 RES     
    7026 H6        -175.3529   -82.0026   202.6449 H6            1 RES     
    7027 H6        -176.8645   -82.5550   201.8974 H6            1 RES     
    7028 H6        -175.5888   -83.6884   204.3638 H6            1 RES     
    7029 H6        -178.0848   -83.9167   204.2495 H6            1 RES     
    7030 H6        -177.9357   -85.0170   202.8758 H6            1 RES     
    7031 H6        -176.6967   -86.6329   204.4259 H6            1 RES     
    7032 H6        -176.5654   -85.3096   205.6425 H6            1 RES     
    7033 H6        -179.2356   -86.5917   204.8278 H6            1 RES     
    7034 H6        -179.0069   -85.1554   205.8963 H6            1 RES     
    7035 H6        -177.9043   -87.9674   206.4911 H6            1 RES     
    7036 H6        -177.5245   -86.4688   207.4142 H6            1 RES     
    7037 H6        -179.8892   -86.1025   207.9948 H6            1 RES     
    7038 H6        -179.2416   -87.6641   208.6028 H6            1 RES     
    7039 H6        -180.3629   -88.8893   206.7469 H6            1 RES     
    7040 H6        -181.0565   -87.3292   206.1308 H6            1 RES     
    7041 H6        -181.5280   -87.9470   207.7522 H6            1 RES     
    7042 H6        -174.3601   -83.9443   202.1107 H6            1 RES     
    7043 H6        -175.8240   -84.8100   201.5518 H6            1 RES     
    7044 H6        -174.0384   -85.6380   200.5343 H6            1 RES     
    7045 H6        -172.8828   -86.7305   201.1198 H6            1 RES     
    7046 H6        -175.8421   -87.5418   201.1024 H6            1 RES     
    7047 H6        -174.2061   -89.0644   202.2100 H6            1 RES     
    7048 H6        -175.1612   -89.8153   200.8923 H6            1 RES     
    7049 H6        -173.2374   -89.7648   199.3387 H6            1 RES     
    7050 H6        -172.2778   -88.8542   200.5260 H6            1 RES     
    7051 H6        -171.5006   -91.0876   200.6107 H6            1 RES     
    7052 H6        -172.4222   -90.8078   202.1062 H6            1 RES     
    7053 H6        -174.3791   -92.0566   201.1405 H6            1 RES     
    7054 H6        -172.8824   -93.0374   201.2354 H6            1 RES     
    7055 H6        -174.0261   -91.7550   198.6621 H6            1 RES     
    7056 H6        -174.0933   -93.4770   199.1466 H6            1 RES     
    7057 H6        -171.5894   -93.6225   199.0703 H6            1 RES     
    7058 H6        -172.3085   -93.1346   197.4905 H6            1 RES     
    7059 H6        -171.5131   -91.8998   198.5142 H6            1 RES     
    7060 H6        -175.8009   -86.7400   198.9570 H6            1 RES     
    7061 H6        -175.5705   -88.5061   198.7869 H6            1 RES     
    7062 H6        -173.0083   -87.9061   198.4035 H6            1 RES     
    7063 H6        -173.5070   -86.2097   198.4120 H6            1 RES     
    7064 H6        -173.2339   -87.1410   196.1608 H6            1 RES     
    7065 H6        -174.4391   -88.4369   196.4830 H6            1 RES     
    7066 H6        -175.0656   -85.3998   196.4333 H6            1 RES     
    7067 H6        -176.2394   -86.7341   196.7343 H6            1 RES     
    7068 H6        -175.8246   -87.6702   194.4634 H6            1 RES     
    7069 H6        -176.4917   -85.9982   194.4788 H6            1 RES     
    7070 H6        -173.5252   -86.7119   194.0118 H6            1 RES     
    7071 H6        -174.2163   -85.0493   194.0296 H6            1 RES     
    7072 H6        -173.8138   -85.9375   191.7422 H6            1 RES     
    7073 H6        -174.9085   -87.3318   192.0513 H6            1 RES     
    7074 H6        -176.8484   -85.7401   192.2711 H6            1 RES     
    7075 H6        -176.0000   -85.5355   190.7060 H6            1 RES     
    7076 H6        -175.7183   -84.3435   192.0299 H6            1 RES     
    7077 C0        -176.9125   -77.7905   212.3923 C0            1 RES     
    7078 C0        -176.9379   -77.9383   213.9139 C0            1 RES     
    7079 C0        -176.9017   -79.2404   214.2859 C0            1 RES     
    7080 S1        -176.8649   -79.4560   215.9453 S1            1 RES     
    7081 C0        -176.8937   -77.7786   216.2409 C0            1 RES     
    7082 C0        -176.8784   -77.0887   215.0168 C0            1 RES     
    7083 C0        -176.7311   -80.0575   213.1344 C0            1 RES     
    7084 C0        -176.6661   -79.2749   212.0809 C0            1 RES     
    7085 C0        -176.2239   -79.9997   210.9041 C0            1 RES     
    7086 C0        -176.0138   -81.3367   211.2058 C0            1 RES     
    7087 S1        -176.3623   -81.7881   212.9178 S1            1 RES     
    7088 H2        -176.7707   -76.0263   214.9625 H2            1 RES     
    7089 H2        -175.9447   -79.5559   209.9641 H2            1 RES     
    7090 N3        -177.3980   -75.1476   218.8891 N3            1 RES     
    7091 C0        -177.3603   -75.7903   217.6871 C0            1 RES     
    7092 C0        -176.9017   -77.1182   217.5739 C0            1 RES     
    7093 C0        -176.4968   -77.7537   218.7595 C0            1 RES     
    7094 N3        -176.0267   -79.0278   218.8282 N3            1 RES     
    7095 S1        -175.6906   -79.1990   220.4383 S1            1 RES     
    7096 N3        -176.1081   -77.7393   221.0886 N3            1 RES     
    7097 C0        -176.5370   -77.0560   219.9963 C0            1 RES     
    7098 C0        -176.9951   -75.7459   220.0434 C0            1 RES     
    7099 H4        -177.7222   -75.2704   216.8177 H4            1 RES     
    7100 C5        -174.1130   -70.7634   218.7333 C5            1 RES     
    7101 C5        -173.7469   -71.9937   217.9016 C5            1 RES     
    7102 C5        -174.9649   -72.7290   217.3147 C5            1 RES     
    7103 C5        -175.8045   -71.8799   216.3400 C5            1 RES     
    7104 C5        -176.9643   -72.7114   215.7652 C5            1 RES     
    7105 C5        -177.9588   -71.8653   214.9576 C5            1 RES     
    7106 C5        -179.1659   -72.6914   214.4530 C5            1 RES     
    7107 C5        -178.8965   -73.5475   213.1765 C5            1 RES     
    7108 C5        -179.0533   -75.0924   213.3238 C5            1 RES     
    7109 C5        -180.4880   -75.5023   213.7673 C5            1 RES     
    7110 C5        -180.5175   -76.8690   214.4765 C5            1 RES     
    7111 C5        -181.7814   -77.0260   215.3490 C5            1 RES     
    7112 C5        -181.6676   -78.2547   216.2694 C5            1 RES     
    7113 C5        -182.7476   -78.2971   217.3655 C5            1 RES     
    7114 C5        -184.1638   -78.4709   216.8282 C5            1 RES     
    7115 C5        -178.5811   -75.7443   211.9834 C5            1 RES     
    7116 C0        -178.2625   -77.2677   211.7273 C0            1 RES     
    7117 C5        -178.2385   -77.4190   210.1444 C5            1 RES     
    7118 C5        -179.5223   -78.0708   209.5299 C5            1 RES     
    7119 C5        -179.4873   -79.6347   209.5160 C5            1 RES     
    7120 C5        -178.5624   -80.2721   208.4525 C5            1 RES     
    7121 C5        -178.4061   -81.7983   208.5806 C5            1 RES     
    7122 C5        -179.6474   -82.6260   208.1964 C5            1 RES     
    7123 C5        -180.0947   -82.4899   206.7249 C5            1 RES     
    7124 C5        -179.0210   -82.9144   205.7176 C5            1 RES     
    7125 C5        -179.9382   -77.4597   208.1504 C5            1 RES     
    7126 C5        -178.8239   -77.2380   207.0951 C5            1 RES     
    7127 C5        -179.3715   -76.8367   205.7066 C5            1 RES     
    7128 C5        -180.1919   -75.5329   205.7040 C5            1 RES     
    7129 C5        -180.7195   -75.1454   204.3077 C5            1 RES     
    7130 C5        -179.6043   -74.7582   203.3171 C5            1 RES     
    7131 C5        -180.1310   -74.3732   201.9228 C5            1 RES     
    7132 C5        -181.0144   -73.1247   201.9213 C5            1 RES     
    7133 H6        -174.5922   -69.9858   218.1047 H6            1 RES     
    7134 H6        -173.1893   -70.3258   219.1685 H6            1 RES     
    7135 H6        -174.7962   -71.0435   219.5631 H6            1 RES     
    7136 H6        -173.0574   -71.6934   217.0842 H6            1 RES     
    7137 H6        -173.2071   -72.7047   218.5656 H6            1 RES     
    7138 H6        -174.5908   -73.6288   216.7796 H6            1 RES     
    7139 H6        -175.6109   -73.0710   218.1534 H6            1 RES     
    7140 H6        -175.1691   -71.5049   215.5081 H6            1 RES     
    7141 H6        -176.2252   -71.0136   216.8924 H6            1 RES     
    7142 H6        -176.5594   -73.5415   215.1476 H6            1 RES     
    7143 H6        -177.5305   -73.1221   216.6240 H6            1 RES     
    7144 H6        -178.3526   -71.0945   215.6568 H6            1 RES     
    7145 H6        -177.4675   -71.3376   214.1121 H6            1 RES     
    7146 H6        -179.5663   -73.2739   215.3072 H6            1 RES     
    7147 H6        -179.9563   -71.9636   214.1712 H6            1 RES     
    7148 H6        -177.8550   -73.3294   212.8492 H6            1 RES     
    7149 H6        -179.5533   -73.1905   212.3537 H6            1 RES     
    7150 H6        -178.3936   -75.3068   214.1345 H6            1 RES     
    7151 H6        -180.8137   -74.7801   214.5354 H6            1 RES     
    7152 H6        -181.2325   -75.4257   212.9455 H6            1 RES     
    7153 H6        -180.3957   -77.7046   213.7552 H6            1 RES     
    7154 H6        -179.6634   -76.8880   215.1855 H6            1 RES     
    7155 H6        -182.6940   -77.0706   214.7170 H6            1 RES     
    7156 H6        -181.8541   -76.1348   216.0115 H6            1 RES     
    7157 H6        -181.6755   -79.1890   215.6690 H6            1 RES     
    7158 H6        -180.6944   -78.1963   216.8066 H6            1 RES     
    7159 H6        -182.6973   -77.3665   217.9740 H6            1 RES     
    7160 H6        -182.5263   -79.1537   218.0386 H6            1 RES     
    7161 H6        -184.2391   -79.4151   216.2495 H6            1 RES     
    7162 H6        -184.4547   -77.6139   216.1874 H6            1 RES     
    7163 H6        -184.8723   -78.5204   217.6830 H6            1 RES     
    7164 H6        -177.6482   -75.2268   211.6668 H6            1 RES     
    7165 H6        -179.3795   -75.4429   211.2657 H6            1 RES     
    7166 H6        -178.1313   -76.4039   209.7077 H6            1 RES     
    7167 H6        -177.3338   -77.8987   209.7460 H6            1 RES     
    7168 H6        -180.3661   -77.8030   210.2067 H6            1 RES     
    7169 H6        -179.1900   -79.9787   210.5303 H6            1 RES     
    7170 H6        -180.5149   -80.0108   209.3236 H6            1 RES     
    7171 H6        -178.9214   -80.0510   207.4325 H6            1 RES     
    7172 H6        -177.5576   -79.8360   208.5521 H6            1 RES     
    7173 H6        -177.5619   -82.1206   207.9355 H6            1 RES     
    7174 H6        -178.1191   -82.0434   209.6231 H6            1 RES     
    7175 H6        -180.4945   -82.3519   208.8588 H6            1 RES     
    7176 H6        -179.4105   -83.6968   208.3824 H6            1 RES     
    7177 H6        -180.4125   -81.4502   206.5054 H6            1 RES     
    7178 H6        -180.9789   -83.1468   206.5766 H6            1 RES     
    7179 H6        -178.7021   -83.9617   205.9065 H6            1 RES     
    7180 H6        -179.4325   -82.8512   204.6881 H6            1 RES     
    7181 H6        -178.1371   -82.2459   205.7655 H6            1 RES     
    7182 H6        -180.3623   -76.4539   208.3554 H6            1 RES     
    7183 H6        -180.7574   -78.0831   207.7301 H6            1 RES     
    7184 H6        -178.2220   -78.1430   206.9304 H6            1 RES     
    7185 H6        -178.1230   -76.4549   207.4471 H6            1 RES     
    7186 H6        -178.4929   -76.7240   205.0386 H6            1 RES     
    7187 H6        -180.0021   -77.6638   205.3122 H6            1 RES     
    7188 H6        -179.5855   -74.6973   206.1156 H6            1 RES     
    7189 H6        -181.0811   -75.6748   206.3531 H6            1 RES     
    7190 H6        -181.3232   -75.9825   203.8930 H6            1 RES     
    7191 H6        -181.3884   -74.2713   204.4484 H6            1 RES     
    7192 H6        -178.9235   -75.6211   203.1717 H6            1 RES     
    7193 H6        -179.0139   -73.9124   203.7325 H6            1 RES     
    7194 H6        -179.2539   -74.1680   201.2708 H6            1 RES     
    7195 H6        -180.6946   -75.2250   201.4841 H6            1 RES     
    7196 H6        -181.9451   -73.2890   202.5007 H6            1 RES     
    7197 H6        -181.3051   -72.8827   200.8771 H6            1 RES     
    7198 H6        -180.4611   -72.2598   202.3443 H6            1 RES     
    7199 C0        -176.5453   -71.8936   223.4043 C0            1 RES     
    7200 C0        -176.4046   -72.4668   224.8148 C0            1 RES     
    7201 C0        -176.7509   -73.7759   224.8544 C0            1 RES     
    7202 S1        -176.5554   -74.4689   226.3654 S1            1 RES     
    7203 C0        -175.9841   -73.0143   227.0432 C0            1 RES     
    7204 C0        -175.9125   -72.0297   226.0430 C0            1 RES     
    7205 C0        -177.0244   -74.2337   223.5359 C0            1 RES     
    7206 C0        -176.8517   -73.2284   222.7076 C0            1 RES     
    7207 C0        -176.8447   -73.6709   221.3256 C0            1 RES     
    7208 C0        -177.0502   -75.0402   221.2513 C0            1 RES     
    7209 S1        -177.2851   -75.8557   222.8438 S1            1 RES     
    7210 H2        -175.4671   -71.0732   226.2155 H2            1 RES     
    7211 H2        -176.5688   -73.0687   220.4771 H2            1 RES     
    7212 N3        -175.2101   -71.2428   230.2762 N3            1 RES     
    7213 C0        -175.5567   -71.4890   228.9806 C0            1 RES     
    7214 C0        -175.5855   -72.7985   228.4601 C0            1 RES     
    7215 C0        -175.2526   -73.8401   229.3419 C0            1 RES     
    7216 N3        -175.2272   -75.1568   229.0034 N3            1 RES     
    7217 S1        -174.7448   -75.8790   230.4107 S1            1 RES     
    7218 N3        -174.5586   -74.6178   231.4608 N3            1 RES     
    7219 C0        -174.8851   -73.5531   230.6838 C0            1 RES     
    7220 C0        -174.8709   -72.2406   231.1375 C0            1 RES     
    7221 H4        -175.8437   -70.6577   228.3612 H4            1 RES     
    7222 C5        -170.7125   -68.1140   230.4128 C5            1 RES     
    7223 C5        -170.8959   -69.0979   229.2562 C5            1 RES     
    7224 C5        -172.3584   -69.2558   228.8038 C5            1 RES     
    7225 C5        -172.9964   -67.9584   228.2692 C5            1 RES     
    7226 C5        -174.4349   -68.2240   227.7926 C5            1 RES     
    7227 C5        -175.1951   -66.9348   227.4504 C5            1 RES     
    7228 C5        -176.6660   -67.2027   227.0520 C5            1 RES     
    7229 C5        -176.8778   -67.6873   225.5839 C5            1 RES     
    7230 C5        -177.5162   -69.0983   225.3978 C5            1 RES     
    7231 C5        -178.9284   -69.1993   226.0447 C5            1 RES     
    7232 C5        -179.3101   -70.6477   226.4031 C5            1 RES     
    7233 C5        -180.4188   -70.6910   227.4764 C5            1 RES     
    7234 C5        -180.5915   -72.1153   228.0344 C5            1 RES     
    7235 C5        -181.4593   -72.1711   229.3045 C5            1 RES     
    7236 C5        -182.9134   -71.7745   229.0747 C5            1 RES     
    7237 C5        -177.4800   -69.4346   223.8713 C5            1 RES     
    7238 C0        -177.7243   -70.8416   223.2015 C0            1 RES     
    7239 C5        -177.9741   -70.5235   221.6635 C5            1 RES     
    7240 C5        -179.4741   -70.5783   221.2192 C5            1 RES     
    7241 C5        -179.9625   -72.0133   220.8329 C5            1 RES     
    7242 C5        -179.4603   -72.5448   219.4698 C5            1 RES     
    7243 C5        -179.8031   -74.0211   219.1993 C5            1 RES     
    7244 C5        -181.2896   -74.3161   218.9222 C5            1 RES     
    7245 C5        -181.8681   -73.6354   217.6629 C5            1 RES     
    7246 C5        -181.1486   -74.0305   216.3691 C5            1 RES     
    7247 C5        -179.8527   -69.4992   220.1508 C5            1 RES     
    7248 C5        -178.8876   -69.3010   218.9533 C5            1 RES     
    7249 C5        -179.4599   -68.3740   217.8571 C5            1 RES     
    7250 C5        -179.7928   -66.9509   218.3439 C5            1 RES     
    7251 C5        -180.3521   -66.0398   217.2325 C5            1 RES     
    7252 C5        -179.3222   -65.7096   216.1347 C5            1 RES     
    7253 C5        -179.8813   -64.8017   215.0244 C5            1 RES     
    7254 C5        -180.2912   -63.4118   215.5136 C5            1 RES     
    7255 H6        -170.9895   -67.0846   230.1077 H6            1 RES     
    7256 H6        -169.6445   -68.1012   230.7185 H6            1 RES     
    7257 H6        -171.3263   -68.4207   231.2861 H6            1 RES     
    7258 H6        -170.2676   -68.7782   228.3979 H6            1 RES     
    7259 H6        -170.5352   -70.0939   229.5967 H6            1 RES     
    7260 H6        -172.3831   -70.0267   228.0032 H6            1 RES     
    7261 H6        -172.9569   -69.6321   229.6627 H6            1 RES     
    7262 H6        -172.3959   -67.5509   227.4268 H6            1 RES     
    7263 H6        -173.0239   -67.2100   229.0888 H6            1 RES     
    7264 H6        -174.4193   -68.9158   226.9234 H6            1 RES     
    7265 H6        -174.9790   -68.6915   228.6365 H6            1 RES     
    7266 H6        -175.2085   -66.3241   228.3804 H6            1 RES     
    7267 H6        -174.6801   -66.3432   226.6631 H6            1 RES     
    7268 H6        -177.1131   -67.8725   227.8141 H6            1 RES     
    7269 H6        -177.2012   -66.2328   227.1335 H6            1 RES     
    7270 H6        -175.8798   -67.6851   225.0907 H6            1 RES     
    7271 H6        -177.4873   -66.9356   225.0370 H6            1 RES     
    7272 H6        -176.8583   -69.7170   225.9660 H6            1 RES     
    7273 H6        -178.8848   -68.6724   227.0133 H6            1 RES     
    7274 H6        -179.7127   -68.6794   225.4530 H6            1 RES     
    7275 H6        -179.5749   -71.2344   225.4982 H6            1 RES     
    7276 H6        -178.4202   -71.1126   226.8768 H6            1 RES     
    7277 H6        -181.3736   -70.2902   227.0737 H6            1 RES     
    7278 H6        -180.0980   -70.0499   228.3275 H6            1 RES     
    7279 H6        -180.9931   -72.7913   227.2501 H6            1 RES     
    7280 H6        -179.5889   -72.4928   228.3369 H6            1 RES     
    7281 H6        -181.0182   -71.5128   230.0861 H6            1 RES     
    7282 H6        -181.4428   -73.2132   229.6913 H6            1 RES     
    7283 H6        -183.3782   -72.4469   228.3238 H6            1 RES     
    7284 H6        -182.9902   -70.7219   228.7343 H6            1 RES     
    7285 H6        -183.4709   -71.8707   230.0313 H6            1 RES     
    7286 H6        -176.4824   -69.1314   223.4825 H6            1 RES     
    7287 H6        -178.2253   -68.7246   223.4427 H6            1 RES     
    7288 H6        -177.5984   -69.4980   221.4633 H6            1 RES     
    7289 H6        -177.3452   -71.0997   220.9709 H6            1 RES     
    7290 H6        -180.0775   -70.2944   222.1120 H6            1 RES     
    7291 H6        -179.6571   -72.7082   221.6450 H6            1 RES     
    7292 H6        -181.0729   -72.0119   220.7946 H6            1 RES     
    7293 H6        -179.8649   -71.9433   218.6375 H6            1 RES     
    7294 H6        -178.3643   -72.4580   219.4395 H6            1 RES     
    7295 H6        -179.2131   -74.3642   218.3237 H6            1 RES     
    7296 H6        -179.4706   -74.6309   220.0634 H6            1 RES     
    7297 H6        -181.8960   -74.0212   219.8036 H6            1 RES     
    7298 H6        -181.3980   -75.4158   218.7946 H6            1 RES     
    7299 H6        -181.8502   -72.5315   217.7697 H6            1 RES     
    7300 H6        -182.9317   -73.9437   217.5684 H6            1 RES     
    7301 H6        -181.1722   -75.1325   216.2313 H6            1 RES     
    7302 H6        -181.6558   -73.5557   215.5027 H6            1 RES     
    7303 H6        -180.0955   -73.6821   216.3714 H6            1 RES     
    7304 H6        -179.8858   -68.5207   220.6751 H6            1 RES     
    7305 H6        -180.8827   -69.7155   219.7922 H6            1 RES     
    7306 H6        -178.6496   -70.2492   218.4506 H6            1 RES     
    7307 H6        -177.9245   -68.8854   219.3112 H6            1 RES     
    7308 H6        -178.6966   -68.3226   217.0535 H6            1 RES     
    7309 H6        -180.3780   -68.8372   217.4329 H6            1 RES     
    7310 H6        -178.8921   -66.4783   218.7918 H6            1 RES     
    7311 H6        -180.5784   -67.0205   219.1250 H6            1 RES     
    7312 H6        -181.2513   -66.5138   216.7807 H6            1 RES     
    7313 H6        -180.6663   -65.0940   217.7204 H6            1 RES     
    7314 H6        -178.9939   -66.6472   215.6423 H6            1 RES     
    7315 H6        -178.4325   -65.2242   216.5922 H6            1 RES     
    7316 H6        -179.0864   -64.6700   214.2581 H6            1 RES     
    7317 H6        -180.7512   -65.2933   214.5375 H6            1 RES     
    7318 H6        -181.1327   -63.4698   216.2330 H6            1 RES     
    7319 H6        -180.6284   -62.8032   214.6479 H6            1 RES     
    7320 H6        -179.4287   -62.9007   215.9910 H6            1 RES     
    7321 C0        -172.7015   -69.8299   235.1149 C0            1 RES     
    7322 C0        -172.5628   -70.8061   236.2836 C0            1 RES     
    7323 C0        -173.3148   -71.9167   236.0932 C0            1 RES     
    7324 S1        -173.1506   -73.0472   237.3166 S1            1 RES     
    7325 C0        -172.0398   -72.0767   238.1689 C0            1 RES     
    7326 C0        -171.7865   -70.9044   237.4365 C0            1 RES     
    7327 C0        -173.9067   -71.8724   234.8009 C0            1 RES     
    7328 C0        -173.5281   -70.7598   234.2132 C0            1 RES     
    7329 C0        -173.8622   -70.7617   232.8011 C0            1 RES     
    7330 C0        -174.5188   -71.9336   232.4573 C0            1 RES     
    7331 S1        -174.7853   -73.0789   233.8261 S1            1 RES     
    7332 H2        -171.0294   -70.2059   237.7228 H2            1 RES     
    7333 H2        -173.5239   -70.0407   232.0770 H2            1 RES     
    7334 N3        -170.2765   -71.6214   241.4663 N3            1 RES     
    7335 C0        -170.8632   -71.3699   240.2614 C0            1 RES     
    7336 C0        -171.3977   -72.4063   239.4696 C0            1 RES     
    7337 C0        -171.3092   -73.7099   239.9855 C0            1 RES     
    7338 N3        -171.7700   -74.8214   239.3520 N3            1 RES     
    7339 S1        -171.3624   -76.0289   240.4059 S1            1 RES     
    7340 N3        -170.6229   -75.2359   241.6517 N3            1 RES     
    7341 C0        -170.6830   -73.9436   241.2390 C0            1 RES     
    7342 C0        -170.1706   -72.8808   241.9715 C0            1 RES     
    7343 H4        -170.9419   -70.3482   239.9343 H4            1 RES     
    7344 C5        -165.0234   -70.0666   241.3130 C5            1 RES     
    7345 C5        -165.6832   -70.5758   240.0306 C5            1 RES     
    7346 C5        -167.1633   -70.1765   239.8952 C5            1 RES     
    7347 C5        -167.4029   -68.6549   239.8362 C5            1 RES     
    7348 C5        -168.8997   -68.3537   239.6474 C5            1 RES     
    7349 C5        -169.2289   -66.8615   239.7961 C5            1 RES     
    7350 C5        -170.7458   -66.5761   239.6881 C5            1 RES     
    7351 C5        -171.3100   -66.5298   238.2339 C5            1 RES     
    7352 C5        -172.4000   -67.5854   237.8721 C5            1 RES     
    7353 C5        -173.6601   -67.4699   238.7786 C5            1 RES     
    7354 C5        -174.4467   -68.7912   238.8653 C5            1 RES     
    7355 C5        -175.3449   -68.8332   240.1201 C5            1 RES     
    7356 C5        -175.9004   -70.2496   240.3542 C5            1 RES     
    7357 C5        -176.5503   -70.4283   241.7380 C5            1 RES     
    7358 C5        -177.8074   -69.5897   241.9409 C5            1 RES     
    7359 C5        -172.6918   -67.4563   236.3416 C5            1 RES     
    7360 C0        -173.4806   -68.4775   235.4344 C0            1 RES     
    7361 C5        -173.8237   -67.6665   234.1102 C5            1 RES     
    7362 C5        -175.3035   -67.1647   234.0151 C5            1 RES     
    7363 C5        -176.2895   -68.2259   233.4245 C5            1 RES     
    7364 C5        -176.1886   -68.4540   231.8979 C5            1 RES     
    7365 C5        -177.0363   -69.6277   231.3745 C5            1 RES     
    7366 C5        -178.5597   -69.3983   231.3784 C5            1 RES     
    7367 C5        -179.0499   -68.2449   230.4764 C5            1 RES     
    7368 C5        -178.6913   -68.4298   228.9983 C5            1 RES     
    7369 C5        -175.4483   -65.7594   233.3417 C5            1 RES     
    7370 C5        -174.6501   -65.4993   232.0380 C5            1 RES     
    7371 C5        -175.0300   -64.1703   231.3464 C5            1 RES     
    7372 C5        -174.8000   -62.9185   232.2143 C5            1 RES     
    7373 C5        -175.1752   -61.6033   231.5018 C5            1 RES     
    7374 C5        -174.2588   -61.2699   230.3085 C5            1 RES     
    7375 C5        -174.6346   -59.9580   229.5963 C5            1 RES     
    7376 C5        -174.4871   -58.7156   230.4760 C5            1 RES     
    7377 H6        -164.9830   -68.9586   241.3273 H6            1 RES     
    7378 H6        -163.9801   -70.4446   241.3646 H6            1 RES     
    7379 H6        -165.5754   -70.4299   242.2058 H6            1 RES     
    7380 H6        -165.1114   -70.2091   239.1518 H6            1 RES     
    7381 H6        -165.6296   -71.6871   240.0387 H6            1 RES     
    7382 H6        -167.5545   -70.6398   238.9634 H6            1 RES     
    7383 H6        -167.7261   -70.6034   240.7545 H6            1 RES     
    7384 H6        -166.8255   -68.2048   238.9993 H6            1 RES     
    7385 H6        -167.0652   -68.2030   240.7925 H6            1 RES     
    7386 H6        -169.2366   -68.7360   238.6601 H6            1 RES     
    7387 H6        -169.4441   -68.8749   240.4591 H6            1 RES     
    7388 H6        -168.9084   -66.5717   240.8215 H6            1 RES     
    7389 H6        -168.6626   -66.2352   239.0735 H6            1 RES     
    7390 H6        -171.2783   -67.2856   240.3532 H6            1 RES     
    7391 H6        -170.9118   -65.5630   240.1122 H6            1 RES     
    7392 H6        -170.4475   -66.6642   237.5431 H6            1 RES     
    7393 H6        -171.7059   -65.5114   238.0295 H6            1 RES     
    7394 H6        -171.9120   -68.5022   238.1169 H6            1 RES     
    7395 H6        -173.3089   -67.2841   239.8081 H6            1 RES     
    7396 H6        -174.3022   -66.6012   238.5170 H6            1 RES     
    7397 H6        -175.0153   -68.9883   237.9319 H6            1 RES     
    7398 H6        -173.7045   -69.6050   239.0043 H6            1 RES     
    7399 H6        -176.1589   -68.0805   240.0479 H6            1 RES     
    7400 H6        -174.7135   -68.5865   241.0027 H6            1 RES     
    7401 H6        -176.6093   -70.5250   239.5449 H6            1 RES     
    7402 H6        -175.0480   -70.9651   240.3264 H6            1 RES     
    7403 H6        -175.8109   -70.1794   242.5317 H6            1 RES     
    7404 H6        -176.8266   -71.4985   241.8568 H6            1 RES     
    7405 H6        -178.5694   -69.8538   241.1782 H6            1 RES     
    7406 H6        -177.5774   -68.5065   241.8820 H6            1 RES     
    7407 H6        -178.2252   -69.8007   242.9488 H6            1 RES     
    7408 H6        -171.7151   -67.3459   235.8199 H6            1 RES     
    7409 H6        -173.2116   -66.4724   236.2698 H6            1 RES     
    7410 H6        -173.1610   -66.7763   234.0757 H6            1 RES     
    7411 H6        -173.5254   -68.1673   233.1788 H6            1 RES     
    7412 H6        -175.6469   -66.9969   235.0618 H6            1 RES     
    7413 H6        -176.1214   -69.1845   233.9616 H6            1 RES     
    7414 H6        -177.3302   -67.9012   233.6388 H6            1 RES     
    7415 H6        -176.4830   -67.5469   231.3422 H6            1 RES     
    7416 H6        -175.1416   -68.6739   231.6426 H6            1 RES     
    7417 H6        -176.7225   -69.8510   230.3332 H6            1 RES     
    7418 H6        -176.8073   -70.5314   231.9746 H6            1 RES     
    7419 H6        -178.9039   -69.2161   232.4175 H6            1 RES     
    7420 H6        -179.0437   -70.3355   231.0252 H6            1 RES     
    7421 H6        -178.6519   -67.2723   230.8312 H6            1 RES     
    7422 H6        -180.1577   -68.2000   230.5546 H6            1 RES     
    7423 H6        -179.0984   -69.3900   228.6159 H6            1 RES     
    7424 H6        -179.1283   -67.5996   228.4039 H6            1 RES     
    7425 H6        -177.5929   -68.4081   228.8446 H6            1 RES     
    7426 H6        -175.0809   -65.0092   234.0737 H6            1 RES     
    7427 H6        -176.5312   -65.5626   233.1840 H6            1 RES     
    7428 H6        -174.8133   -66.2857   231.2874 H6            1 RES     
    7429 H6        -173.5636   -65.4950   232.2566 H6            1 RES     
    7430 H6        -174.4135   -64.1028   230.4265 H6            1 RES     
    7431 H6        -176.0996   -64.2113   231.0438 H6            1 RES     
    7432 H6        -173.7401   -62.8709   232.5454 H6            1 RES     
    7433 H6        -175.4464   -62.9898   233.1139 H6            1 RES     
    7434 H6        -176.2346   -61.6515   231.1663 H6            1 RES     
    7435 H6        -175.0859   -60.7933   232.2550 H6            1 RES     
    7436 H6        -174.3327   -62.0750   229.5498 H6            1 RES     
    7437 H6        -173.2036   -61.2103   230.6542 H6            1 RES     
    7438 H6        -173.9569   -59.8368   228.7231 H6            1 RES     
    7439 H6        -175.6775   -60.0202   229.2169 H6            1 RES     
    7440 H6        -175.1905   -58.7425   231.3324 H6            1 RES     
    7441 H6        -174.7211   -57.8112   229.8752 H6            1 RES     
    7442 H6        -173.4460   -58.6307   230.8526 H6            1 RES     
    7443 C0        -166.7891   -72.4515   245.8080 C0            1 RES     
    7444 C0        -166.8198   -73.7247   246.6542 C0            1 RES     
    7445 C0        -167.9166   -74.4726   246.3842 C0            1 RES     
    7446 S1        -167.9672   -75.9100   247.2403 S1            1 RES     
    7447 C0        -166.4894   -75.5847   248.0229 C0            1 RES     
    7448 C0        -165.9667   -74.3702   247.5470 C0            1 RES     
    7449 C0        -168.6353   -73.8874   245.3054 C0            1 RES     
    7450 C0        -167.9952   -72.8051   244.9241 C0            1 RES     
    7451 C0        -168.5055   -72.2996   243.6633 C0            1 RES     
    7452 C0        -169.5552   -73.0855   243.2122 C0            1 RES     
    7453 S1        -169.9919   -74.4579   244.2995 S1            1 RES     
    7454 H2        -164.9884   -74.0285   247.8103 H2            1 RES     
    7455 H2        -168.0521   -71.5239   243.0705 H2            1 RES     
    7456 N3        -164.2311   -76.6293   250.8510 N3            1 RES     
    7457 C0        -164.8638   -75.8819   249.9022 C0            1 RES     
    7458 C0        -165.8174   -76.4471   249.0317 C0            1 RES     
    7459 C0        -166.0951   -77.8144   249.1952 C0            1 RES     
    7460 N3        -166.9827   -78.5153   248.4403 N3            1 RES     
    7461 S1        -166.8555   -80.0419   249.0632 S1            1 RES     
    7462 N3        -165.7278   -79.8896   250.2604 N3            1 RES     
    7463 C0        -165.4128   -78.5709   250.1853 C0            1 RES     
    7464 C0        -164.4794   -77.9580   251.0109 C0            1 RES     
    7465 H4        -164.6440   -74.8302   249.8492 H4            1 RES     
    7466 C5        -158.8362   -76.6406   249.8858 C5            1 RES     
    7467 C5        -159.8005   -76.5452   248.7025 C5            1 RES     
    7468 C5        -161.0677   -75.7244   249.0011 C5            1 RES     
    7469 C5        -160.7944   -74.2491   249.3547 C5            1 RES     
    7470 C5        -162.1172   -73.4977   249.5836 C5            1 RES     
    7471 C5        -161.9081   -72.0848   250.1469 C5            1 RES     
    7472 C5        -163.2436   -71.3659   250.4531 C5            1 RES     
    7473 C5        -163.9585   -70.7394   249.2156 C5            1 RES     
    7474 C5        -165.3763   -71.2918   248.8723 C5            1 RES     
    7475 C5        -166.3864   -71.0972   250.0406 C5            1 RES     
    7476 C5        -167.5465   -72.1089   249.9912 C5            1 RES     
    7477 C5        -168.2223   -72.2619   251.3707 C5            1 RES     
    7478 C5        -169.1779   -73.4688   251.3864 C5            1 RES     
    7479 C5        -169.6494   -73.8542   252.8000 C5            1 RES     
    7480 C5        -170.5153   -72.7937   253.4709 C5            1 RES     
    7481 C5        -165.8203   -70.6439   247.5205 C5            1 RES     
    7482 C0        -167.0222   -71.0899   246.6016 C0            1 RES     
    7483 C5        -167.2587   -69.8647   245.6158 C5            1 RES     
    7484 C5        -168.4859   -68.9622   245.9763 C5            1 RES     
    7485 C5        -169.8408   -69.4820   245.3920 C5            1 RES     
    7486 C5        -170.0363   -69.2721   243.8720 C5            1 RES     
    7487 C5        -171.2900   -69.9532   243.2937 C5            1 RES     
    7488 C5        -172.6345   -69.3163   243.6941 C5            1 RES     
    7489 C5        -172.8354   -67.8604   243.2208 C5            1 RES     
    7490 C5        -172.7695   -67.6976   241.6986 C5            1 RES     
    7491 C5        -168.2490   -67.4400   245.7002 C5            1 RES     
    7492 C5        -167.6009   -67.0452   244.3480 C5            1 RES     
    7493 C5        -167.6112   -65.5214   244.0898 C5            1 RES     
    7494 C5        -166.8594   -64.6959   245.1512 C5            1 RES     
    7495 C5        -166.8728   -63.1799   244.8690 C5            1 RES     
    7496 C5        -166.0746   -62.7837   243.6117 C5            1 RES     
    7497 C5        -166.0896   -61.2706   243.3291 C5            1 RES     
    7498 C5        -165.4163   -60.4340   244.4181 C5            1 RES     
    7499 H6        -158.4288   -75.6435   250.1490 H6            1 RES     
    7500 H6        -157.9812   -77.2946   249.6113 H6            1 RES     
    7501 H6        -159.3465   -77.0786   250.7698 H6            1 RES     
    7502 H6        -159.2686   -76.1136   247.8281 H6            1 RES     
    7503 H6        -160.1182   -77.5783   248.4386 H6            1 RES     
    7504 H6        -161.7170   -75.7652   248.0997 H6            1 RES     
    7505 H6        -161.6139   -76.2078   249.8411 H6            1 RES     
    7506 H6        -160.2237   -73.7552   248.5382 H6            1 RES     
    7507 H6        -160.1953   -74.2109   250.2887 H6            1 RES     
    7508 H6        -162.6968   -73.4634   248.6364 H6            1 RES     
    7509 H6        -162.6842   -74.0585   250.3523 H6            1 RES     
    7510 H6        -161.3692   -72.2102   251.1123 H6            1 RES     
    7511 H6        -161.2733   -71.4603   249.4822 H6            1 RES     
    7512 H6        -163.8826   -72.0592   251.0365 H6            1 RES     
    7513 H6        -163.0027   -70.5174   251.1283 H6            1 RES     
    7514 H6        -163.2953   -70.9026   248.3364 H6            1 RES     
    7515 H6        -164.0184   -69.6375   249.3492 H6            1 RES     
    7516 H6        -165.1910   -72.3385   248.7798 H6            1 RES     
    7517 H6        -165.8527   -71.3274   250.9786 H6            1 RES     
    7518 H6        -166.7336   -70.0460   250.1407 H6            1 RES     
    7519 H6        -168.2732   -71.8560   249.1904 H6            1 RES     
    7520 H6        -167.1048   -73.1021   249.7654 H6            1 RES     
    7521 H6        -168.7420   -71.3240   251.6615 H6            1 RES     
    7522 H6        -167.4278   -72.4723   252.1208 H6            1 RES     
    7523 H6        -170.0440   -73.2842   250.7163 H6            1 RES     
    7524 H6        -168.6241   -74.3542   251.0010 H6            1 RES     
    7525 H6        -168.7657   -74.0669   253.4423 H6            1 RES     
    7526 H6        -170.2457   -74.7894   252.7246 H6            1 RES     
    7527 H6        -171.4207   -72.5976   252.8595 H6            1 RES     
    7528 H6        -169.9495   -71.8511   253.6164 H6            1 RES     
    7529 H6        -170.8338   -73.1640   254.4692 H6            1 RES     
    7530 H6        -164.9457   -70.6650   246.8328 H6            1 RES     
    7531 H6        -165.9886   -69.5775   247.7995 H6            1 RES     
    7532 H6        -166.3499   -69.2274   245.6417 H6            1 RES     
    7533 H6        -167.2773   -70.1337   244.5506 H6            1 RES     
    7534 H6        -168.6038   -69.0185   247.0829 H6            1 RES     
    7535 H6        -169.9268   -70.5625   245.6382 H6            1 RES     
    7536 H6        -170.6737   -68.9552   245.9049 H6            1 RES     
    7537 H6        -170.0879   -68.1976   243.6245 H6            1 RES     
    7538 H6        -169.1685   -69.6927   243.3433 H6            1 RES     
    7539 H6        -171.2175   -69.9408   242.1859 H6            1 RES     
    7540 H6        -171.2922   -71.0191   243.5987 H6            1 RES     
    7541 H6        -172.7494   -69.3571   244.7971 H6            1 RES     
    7542 H6        -173.4465   -69.9334   243.2502 H6            1 RES     
    7543 H6        -172.0916   -67.1872   243.6939 H6            1 RES     
    7544 H6        -173.8429   -67.5307   243.5548 H6            1 RES     
    7545 H6        -173.5215   -68.3488   241.2044 H6            1 RES     
    7546 H6        -172.9850   -66.6421   241.4288 H6            1 RES     
    7547 H6        -171.7592   -67.9417   241.3110 H6            1 RES     
    7548 H6        -167.5546   -67.0719   246.4850 H6            1 RES     
    7549 H6        -169.2160   -66.9095   245.8410 H6            1 RES     
    7550 H6        -168.1194   -67.4984   243.4910 H6            1 RES     
    7551 H6        -166.5552   -67.4108   244.3110 H6            1 RES     
    7552 H6        -167.1427   -65.3638   243.0965 H6            1 RES     
    7553 H6        -168.6650   -65.1696   244.0349 H6            1 RES     
    7554 H6        -165.8085   -65.0474   245.2368 H6            1 RES     
    7555 H6        -167.3600   -64.8426   246.1311 H6            1 RES     
    7556 H6        -167.9241   -62.8279   244.7791 H6            1 RES     
    7557 H6        -166.4151   -62.6852   245.7505 H6            1 RES     
    7558 H6        -166.5172   -63.2767   242.7227 H6            1 RES     
    7559 H6        -165.0220   -63.1271   243.7149 H6            1 RES     
    7560 H6        -165.5396   -61.0949   242.3788 H6            1 RES     
    7561 H6        -167.1363   -60.9232   243.1906 H6            1 RES     
    7562 H6        -165.9613   -60.5114   245.3803 H6            1 RES     
    7563 H6        -165.4187   -59.3659   244.1137 H6            1 RES     
    7564 H6        -164.3641   -60.7594   244.5597 H6            1 RES     
    7565 C0        -160.6446   -79.6391   253.9784 C0            1 RES     
    7566 C0        -160.9772   -81.0417   254.4884 C0            1 RES     
    7567 C0        -162.2864   -81.3378   254.3054 C0            1 RES     
    7568 S1        -162.6906   -82.8879   254.7909 S1            1 RES     
    7569 C0        -161.0944   -83.2352   255.2742 C0            1 RES     
    7570 C0        -160.2704   -82.1329   254.9899 C0            1 RES     
    7571 C0        -162.9139   -80.2853   253.5835 C0            1 RES     
    7572 C0        -162.0110   -79.3645   253.3315 C0            1 RES     
    7573 C0        -162.4961   -78.3901   252.3718 C0            1 RES     
    7574 C0        -163.7993   -78.6812   251.9981 C0            1 RES     
    7575 S1        -164.5098   -80.1308   252.8044 S1            1 RES     
    7576 H2        -159.2075   -82.1727   255.0984 H2            1 RES     
    7577 H2        -161.8988   -77.6351   251.8902 H2            1 RES     
    7578 N3        -158.9380   -85.6525   257.1966 N3            1 RES     
    7579 C0        -159.4132   -84.5138   256.6162 C0            1 RES     
    7580 C0        -160.6123   -84.5075   255.8756 C0            1 RES     
    7581 C0        -161.3023   -85.7269   255.7735 C0            1 RES     
    7582 N3        -162.4688   -85.8970   255.0956 N3            1 RES     
    7583 S1        -162.7694   -87.5103   255.2997 S1            1 RES     
    7584 N3        -161.4991   -88.0385   256.2136 N3            1 RES     
    7585 C0        -160.7781   -86.8999   256.3796 C0            1 RES     
    7586 C0        -159.5882   -86.8438   257.0934 C0            1 RES     
    7587 H4        -158.8665   -83.5989   256.7621 H4            1 RES     
    7588 C5        -154.0445   -86.8974   255.0657 C5            1 RES     
    7589 C5        -155.0783   -86.1927   254.1859 C5            1 RES     
    7590 C5        -155.9460   -85.1736   254.9455 C5            1 RES     
    7591 C5        -155.1519   -84.0056   255.5629 C5            1 RES     
    7592 C5        -156.1044   -83.0139   256.2530 C5            1 RES     
    7593 C5        -155.3614   -81.9462   257.0686 C5            1 RES     
    7594 C5        -156.3257   -81.0032   257.8270 C5            1 RES     
    7595 C5        -156.9581   -79.8675   256.9638 C5            1 RES     
    7596 C5        -158.5122   -79.8733   256.8295 C5            1 RES     
    7597 C5        -159.2260   -79.7532   258.2076 C5            1 RES     
    7598 C5        -160.6509   -80.3372   258.1858 C5            1 RES     
    7599 C5        -161.1388   -80.6907   259.6072 C5            1 RES     
    7600 C5        -162.4284   -81.5296   259.5554 C5            1 RES     
    7601 C5        -162.7981   -82.1630   260.9088 C5            1 RES     
    7602 C5        -163.1597   -81.1465   261.9861 C5            1 RES     
    7603 C5        -158.9008   -78.7606   255.8021 C5            1 RES     
    7604 C0        -160.2989   -78.5614   255.0995 C0            1 RES     
    7605 C5        -160.2511   -77.0866   254.5065 C5            1 RES     
    7606 C5        -161.0458   -76.0222   255.3347 C5            1 RES     
    7607 C5        -162.5641   -75.9453   254.9658 C5            1 RES     
    7608 C5        -162.8900   -75.2537   253.6212 C5            1 RES     
    7609 C5        -164.3666   -75.3544   253.1975 C5            1 RES     
    7610 C5        -165.3532   -74.5114   254.0279 C5            1 RES     
    7611 C5        -165.1238   -72.9858   253.9655 C5            1 RES     
    7612 C5        -165.2217   -72.4102   252.5488 C5            1 RES     
    7613 C5        -160.3583   -74.6169   255.3757 C5            1 RES     
    7614 C5        -159.8123   -74.0425   254.0429 C5            1 RES     
    7615 C5        -159.3523   -72.5715   254.1568 C5            1 RES     
    7616 C5        -158.2283   -72.3390   255.1843 C5            1 RES     
    7617 C5        -157.7772   -70.8671   255.2744 C5            1 RES     
    7618 C5        -157.0773   -70.3615   253.9979 C5            1 RES     
    7619 C5        -156.6288   -68.8917   254.0873 C5            1 RES     
    7620 C5        -155.5703   -68.6351   255.1611 C5            1 RES     
    7621 H6        -153.2966   -86.1777   255.4557 H6            1 RES     
    7622 H6        -153.5024   -87.6552   254.4607 H6            1 RES     
    7623 H6        -154.5420   -87.4129   255.9145 H6            1 RES     
    7624 H6        -154.5614   -85.6920   253.3398 H6            1 RES     
    7625 H6        -155.7545   -86.9704   253.7665 H6            1 RES     
    7626 H6        -156.6916   -84.7646   254.2296 H6            1 RES     
    7627 H6        -156.4982   -85.7076   255.7501 H6            1 RES     
    7628 H6        -154.5701   -83.4757   254.7774 H6            1 RES     
    7629 H6        -154.4494   -84.4125   256.3204 H6            1 RES     
    7630 H6        -156.7664   -82.5424   255.4955 H6            1 RES     
    7631 H6        -156.7116   -83.5919   256.9768 H6            1 RES     
    7632 H6        -154.7650   -82.4948   257.8311 H6            1 RES     
    7633 H6        -154.6552   -81.3594   256.4427 H6            1 RES     
    7634 H6        -157.0700   -81.6279   258.3609 H6            1 RES     
    7635 H6        -155.7247   -80.4931   258.6096 H6            1 RES     
    7636 H6        -156.5169   -79.9458   255.9447 H6            1 RES     
    7637 H6        -156.6295   -78.8827   257.3610 H6            1 RES     
    7638 H6        -158.6997   -80.8549   256.4557 H6            1 RES     
    7639 H6        -158.6730   -80.3881   258.9208 H6            1 RES     
    7640 H6        -159.1870   -78.7242   258.6259 H6            1 RES     
    7641 H6        -161.3571   -79.6674   257.6511 H6            1 RES     
    7642 H6        -160.6002   -81.3031   257.6408 H6            1 RES     
    7643 H6        -161.2714   -79.7724   260.2184 H6            1 RES     
    7644 H6        -160.3622   -81.3259   260.0887 H6            1 RES     
    7645 H6        -163.2692   -80.9213   259.1598 H6            1 RES     
    7646 H6        -162.2598   -82.3817   258.8593 H6            1 RES     
    7647 H6        -161.9542   -82.7938   261.2676 H6            1 RES     
    7648 H6        -163.6753   -82.8280   260.7534 H6            1 RES     
    7649 H6        -164.0250   -80.5338   261.6576 H6            1 RES     
    7650 H6        -162.2987   -80.4867   262.2164 H6            1 RES     
    7651 H6        -163.4398   -81.6875   262.9156 H6            1 RES     
    7652 H6        -158.1884   -78.8246   254.9497 H6            1 RES     
    7653 H6        -158.6648   -77.8203   256.3530 H6            1 RES     
    7654 H6        -159.1882   -76.7673   254.4752 H6            1 RES     
    7655 H6        -160.5071   -77.0155   253.4403 H6            1 RES     
    7656 H6        -161.0193   -76.3643   256.3949 H6            1 RES     
    7657 H6        -162.9684   -76.9807   254.9658 H6            1 RES     
    7658 H6        -163.0943   -75.3798   255.7617 H6            1 RES     
    7659 H6        -162.6161   -74.1848   253.6497 H6            1 RES     
    7660 H6        -162.2942   -75.7275   252.8273 H6            1 RES     
    7661 H6        -164.4501   -75.0393   252.1362 H6            1 RES     
    7662 H6        -164.6797   -76.4172   253.2375 H6            1 RES     
    7663 H6        -165.3193   -74.8392   255.0875 H6            1 RES     
    7664 H6        -166.3778   -74.7173   253.6468 H6            1 RES     
    7665 H6        -164.1402   -72.7182   254.4026 H6            1 RES     
    7666 H6        -165.9074   -72.4990   254.5853 H6            1 RES     
    7667 H6        -166.2087   -72.6493   252.0986 H6            1 RES     
    7668 H6        -165.1102   -71.3060   252.5886 H6            1 RES     
    7669 H6        -164.4147   -72.8039   251.8975 H6            1 RES     
    7670 H6        -159.4783   -74.7053   256.0476 H6            1 RES     
    7671 H6        -161.0645   -73.9013   255.8506 H6            1 RES     
    7672 H6        -160.5665   -74.0602   253.2432 H6            1 RES     
    7673 H6        -158.9634   -74.6599   253.6870 H6            1 RES     
    7674 H6        -159.0022   -72.2685   253.1486 H6            1 RES     
    7675 H6        -160.2263   -71.9375   254.4245 H6            1 RES     
    7676 H6        -157.3525   -72.9808   254.9465 H6            1 RES     
    7677 H6        -158.6065   -72.6191   256.1896 H6            1 RES     
    7678 H6        -158.6536   -70.2234   255.5084 H6            1 RES     
    7679 H6        -157.0624   -70.8016   256.1207 H6            1 RES     
    7680 H6        -157.7785   -70.4275   253.1416 H6            1 RES     
    7681 H6        -156.1950   -71.0016   253.7782 H6            1 RES     
    7682 H6        -156.1906   -68.6077   253.1056 H6            1 RES     
    7683 H6        -157.5093   -68.2393   254.2733 H6            1 RES     
    7684 H6        -155.9695   -68.8342   256.1760 H6            1 RES     
    7685 H6        -155.2607   -67.5691   255.1233 H6            1 RES     
    7686 H6        -154.6770   -69.2698   254.9820 H6            1 RES     
    7687 C0        -156.1529   -90.3269   258.6439 C0            1 RES     
    7688 C0        -156.8571   -91.6646   258.8736 C0            1 RES     
    7689 C0        -158.2023   -91.5135   258.9263 C0            1 RES     
    7690 S1        -159.0257   -92.9586   259.1145 S1            1 RES     
    7691 C0        -157.5843   -93.8662   259.1310 C0            1 RES     
    7692 C0        -156.4896   -93.0073   258.9339 C0            1 RES     
    7693 C0        -158.5395   -90.1639   258.6306 C0            1 RES     
    7694 C0        -157.4270   -89.5024   258.4039 C0            1 RES     
    7695 C0        -157.6906   -88.1946   257.8330 C0            1 RES     
    7696 C0        -159.0553   -87.9849   257.7051 C0            1 RES     
    7697 S1        -160.0862   -89.3459   258.2893 S1            1 RES     
    7698 H2        -155.4962   -93.3743   258.7878 H2            1 RES     
    7699 H2        -156.9504   -87.5317   257.4192 H2            1 RES     
    7700 N3        -156.1054   -97.2445   259.8990 N3            1 RES     
    7701 C0        -156.2522   -95.9003   259.7230 C0            1 RES     
    7702 C0        -157.4725   -95.3406   259.2941 C0            1 RES     
    7703 C0        -158.5352   -96.2312   259.0682 C0            1 RES     
    7704 N3        -159.7748   -95.8603   258.6500 N3            1 RES     
    7705 S1        -160.5621   -97.3099   258.5340 S1            1 RES     
    7706 N3        -159.4243   -98.4173   258.9889 N3            1 RES     
    7707 C0        -158.3505   -97.6280   259.2495 C0            1 RES     
    7708 C0        -157.1218   -98.1203   259.6697 C0            1 RES     
    7709 H4        -155.4181   -95.2606   259.9516 H4            1 RES     
    7710 C5        -152.2526   -99.1347   256.4904 C5            1 RES     
    7711 C5        -153.1064   -97.9425   256.0556 C5            1 RES     
    7712 C5        -153.4711   -96.9894   257.2076 C5            1 RES     
    7713 C5        -152.2561   -96.3259   257.8855 C5            1 RES     
    7714 C5        -152.7187   -95.3536   258.9844 C5            1 RES     
    7715 C5        -151.5569   -94.8254   259.8379 C5            1 RES     
    7716 C5        -152.0371   -93.9143   260.9928 C5            1 RES     
    7717 C5        -152.3712   -92.4459   260.5839 C5            1 RES     
    7718 C5        -153.8416   -91.9749   260.8056 C5            1 RES     
    7719 C5        -154.2744   -92.0677   262.2980 C5            1 RES     
    7720 C5        -155.8005   -92.1944   262.4620 C5            1 RES     
    7721 C5        -156.1736   -92.7962   263.8338 C5            1 RES     
    7722 C5        -157.6624   -93.1851   263.8795 C5            1 RES     
    7723 C5        -158.0276   -94.0561   265.0949 C5            1 RES     
    7724 C5        -157.8766   -93.3407   266.4328 C5            1 RES     
    7725 C5        -153.9789   -90.5481   260.1813 C5            1 RES     
    7726 C0        -155.3155   -89.7672   259.8782 C0            1 RES     
    7727 C5        -154.8645   -88.2593   259.6509 C5            1 RES     
    7728 C5        -155.1364   -87.3054   260.8619 C5            1 RES     
    7729 C5        -156.5790   -86.7002   260.8729 C5            1 RES     
    7730 C5        -156.8419   -85.5829   259.8360 C5            1 RES     
    7731 C5        -158.3123   -85.1359   259.7443 C5            1 RES     
    7732 C5        -158.8364   -84.3310   260.9489 C5            1 RES     
    7733 C5        -158.1248   -82.9829   261.1945 C5            1 RES     
    7734 C5        -158.2237   -82.0147   260.0110 C5            1 RES     
    7735 C5        -154.0229   -86.2263   261.0740 C5            1 RES     
    7736 C5        -153.5099   -85.4649   259.8244 C5            1 RES     
    7737 C5        -152.5766   -84.2831   260.1722 C5            1 RES     
    7738 C5        -151.3068   -84.6874   260.9452 C5            1 RES     
    7739 C5        -150.3848   -83.4954   261.2725 C5            1 RES     
    7740 C5        -149.7432   -82.8565   260.0255 C5            1 RES     
    7741 C5        -148.8244   -81.6655   260.3524 C5            1 RES     
    7742 C5        -147.6013   -82.0428   261.1895 C5            1 RES     
    7743 H6        -151.2613   -98.8014   256.8589 H6            1 RES     
    7744 H6        -152.0832   -99.8027   255.6190 H6            1 RES     
    7745 H6        -152.7687   -99.7144   257.2849 H6            1 RES     
    7746 H6        -152.5767   -97.3827   255.2558 H6            1 RES     
    7747 H6        -154.0541   -98.3404   255.6297 H6            1 RES     
    7748 H6        -154.1313   -96.1964   256.7939 H6            1 RES     
    7749 H6        -154.0507   -97.5576   257.9684 H6            1 RES     
    7750 H6        -151.6477   -95.7753   257.1352 H6            1 RES     
    7751 H6        -151.6296   -97.1169   258.3487 H6            1 RES     
    7752 H6        -153.2860   -94.5149   258.5272 H6            1 RES     
    7753 H6        -153.3755   -95.9230   259.6709 H6            1 RES     
    7754 H6        -151.0757   -95.7177   260.2967 H6            1 RES     
    7755 H6        -150.7911   -94.3045   259.2239 H6            1 RES     
    7756 H6        -152.8639   -94.4322   261.5195 H6            1 RES     
    7757 H6        -151.1975   -93.8461   261.7167 H6            1 RES     
    7758 H6        -152.1284   -92.3434   259.5023 H6            1 RES     
    7759 H6        -151.6821   -91.7545   261.1157 H6            1 RES     
    7760 H6        -154.3947   -92.7099   260.2651 H6            1 RES     
    7761 H6        -153.8693   -93.0122   262.6998 H6            1 RES     
    7762 H6        -153.8379   -91.2606   262.9253 H6            1 RES     
    7763 H6        -156.3119   -91.2272   262.2718 H6            1 RES     
    7764 H6        -156.1501   -92.9320   261.7095 H6            1 RES     
    7765 H6        -155.9069   -92.0985   264.6563 H6            1 RES     
    7766 H6        -155.5925   -93.7360   263.9659 H6            1 RES     
    7767 H6        -158.3002   -92.2770   263.8367 H6            1 RES     
    7768 H6        -157.8854   -93.8077   262.9840 H6            1 RES     
    7769 H6        -157.3995   -94.9750   265.0969 H6            1 RES     
    7770 H6        -159.0884   -94.3717   264.9902 H6            1 RES     
    7771 H6        -158.5264   -92.4412   266.4600 H6            1 RES     
    7772 H6        -156.8221   -93.0472   266.6108 H6            1 RES     
    7773 H6        -158.1871   -94.0284   267.2487 H6            1 RES     
    7774 H6        -153.4550   -90.5574   259.1996 H6            1 RES     
    7775 H6        -153.3694   -89.9162   260.8688 H6            1 RES     
    7776 H6        -153.7714   -88.2572   259.4564 H6            1 RES     
    7777 H6        -155.2292   -87.8104   258.7166 H6            1 RES     
    7778 H6        -155.0767   -87.9358   261.7789 H6            1 RES     
    7779 H6        -157.2998   -87.5328   260.7222 H6            1 RES     
    7780 H6        -156.7743   -86.2671   261.8773 H6            1 RES     
    7781 H6        -156.2277   -84.6914   260.0509 H6            1 RES     
    7782 H6        -156.5547   -85.9512   258.8402 H6            1 RES     
    7783 H6        -158.4344   -84.5138   258.8329 H6            1 RES     
    7784 H6        -158.9514   -86.0309   259.6045 H6            1 RES     
    7785 H6        -158.7650   -84.9502   261.8670 H6            1 RES     
    7786 H6        -159.9139   -84.1195   260.7712 H6            1 RES     
    7787 H6        -157.0571   -83.1428   261.4490 H6            1 RES     
    7788 H6        -158.6072   -82.4990   262.0710 H6            1 RES     
    7789 H6        -159.2868   -81.8239   259.7517 H6            1 RES     
    7790 H6        -157.7476   -81.0485   260.2815 H6            1 RES     
    7791 H6        -157.6929   -82.4109   259.1212 H6            1 RES     
    7792 H6        -153.1373   -86.7512   261.4907 H6            1 RES     
    7793 H6        -154.3776   -85.5127   261.8494 H6            1 RES     
    7794 H6        -154.3314   -85.0350   259.2339 H6            1 RES     
    7795 H6        -152.9728   -86.1637   259.1524 H6            1 RES     
    7796 H6        -152.2908   -83.8096   259.2104 H6            1 RES     
    7797 H6        -153.1439   -83.5363   260.7703 H6            1 RES     
    7798 H6        -150.7362   -85.4506   260.3730 H6            1 RES     
    7799 H6        -151.6116   -85.1312   261.9159 H6            1 RES     
    7800 H6        -150.9559   -82.7291   261.8416 H6            1 RES     
    7801 H6        -149.5777   -83.8841   261.9273 H6            1 RES     
    7802 H6        -150.5392   -82.4691   259.3580 H6            1 RES     
    7803 H6        -149.1633   -83.6253   259.4695 H6            1 RES     
    7804 H6        -148.4591   -81.2419   259.3913 H6            1 RES     
    7805 H6        -149.4031   -80.8760   260.8790 H6            1 RES     
    7806 H6        -147.8974   -82.4095   262.1929 H6            1 RES     
    7807 H6        -146.9640   -81.1446   261.3329 H6            1 RES     
    7808 H6        -147.0037   -82.8217   260.6707 H6            1 RES     
    7809 C0        -154.8559  -102.7234   259.5489 C0            1 RES     
    7810 C0        -155.9246  -103.8150   259.6124 C0            1 RES     
    7811 C0        -157.1220  -103.3141   260.0006 C0            1 RES     
    7812 S1        -158.3433  -104.4584   260.0266 S1            1 RES     
    7813 C0        -157.2976  -105.6981   259.5055 C0            1 RES     
    7814 C0        -156.0190  -105.1632   259.2731 C0            1 RES     
    7815 C0        -157.0300  -101.8993   260.1121 C0            1 RES     
    7816 C0        -155.8045  -101.5413   259.8015 C0            1 RES     
    7817 C0        -155.6964  -100.1048   259.6263 C0            1 RES     
    7818 C0        -156.9177   -99.4920   259.8617 C0            1 RES     
    7819 S1        -158.2492  -100.6169   260.3286 S1            1 RES     
    7820 H2        -155.2346  -105.7353   258.8254 H2            1 RES     
    7821 H2        -154.8439   -99.5860   259.2230 H2            1 RES     
    7822 N3        -156.9316  -109.4263   259.1098 N3            1 RES     
    7823 C0        -156.6470  -108.1050   259.2904 C0            1 RES     
    7824 C0        -157.6598  -107.1248   259.2903 C0            1 RES     
    7825 C0        -158.9783  -107.5738   259.1080 C0            1 RES     
    7826 N3        -160.0702  -106.7639   259.0783 N3            1 RES     
    7827 S1        -161.3020  -107.8334   258.8073 S1            1 RES     
    7828 N3        -160.5444  -109.2986   258.7227 N3            1 RES     
    7829 C0        -159.2442  -108.9554   258.9116 C0            1 RES     
    7830 C0        -158.2026  -109.8738   258.9174 C0            1 RES     
    7831 H4        -155.6246  -107.8218   259.4681 H4            1 RES     
    7832 C5        -154.4428  -111.2397   254.5763 C5            1 RES     
    7833 C5        -154.9045  -109.7828   254.6358 C5            1 RES     
    7834 C5        -154.7669  -109.1463   256.0302 C5            1 RES     
    7835 C5        -153.3182  -109.0799   256.5527 C5            1 RES     
    7836 C5        -153.2730  -108.3828   257.9235 C5            1 RES     
    7837 C5        -151.8943  -108.4765   258.5925 C5            1 RES     
    7838 C5        -151.8779  -107.8467   260.0057 C5            1 RES     
    7839 C5        -151.7595  -106.2911   260.0372 C5            1 RES     
    7840 C5        -152.9437  -105.5120   260.6882 C5            1 RES     
    7841 C5        -153.1690  -105.9118   262.1756 C5            1 RES     
    7842 C5        -154.6117  -105.6465   262.6449 C5            1 RES     
    7843 C5        -154.9671  -106.4930   263.8860 C5            1 RES     
    7844 C5        -156.4786  -106.4432   264.1737 C5            1 RES     
    7845 C5        -156.9380  -107.4922   265.2023 C5            1 RES     
    7846 C5        -156.3721  -107.2723   266.6008 C5            1 RES     
    7847 C5        -152.6858  -103.9867   260.4618 C5            1 RES     
    7848 C0        -153.7159  -102.8085   260.6585 C0            1 RES     
    7849 C5        -152.8267  -101.4906   260.6941 C5            1 RES     
    7850 C5        -152.5939  -100.8967   262.1236 C5            1 RES     
    7851 C5        -153.7372   -99.9412   262.6004 C5            1 RES     
    7852 C5        -153.7570   -98.5427   261.9397 C5            1 RES     
    7853 C5        -154.9931   -97.6938   262.2887 C5            1 RES     
    7854 C5        -155.0459   -97.1633   263.7341 C5            1 RES     
    7855 C5        -153.9003   -96.2032   264.1210 C5            1 RES     
    7856 C5        -153.8371   -94.9442   263.2499 C5            1 RES     
    7857 C5        -151.1673  -100.2857   262.3255 C5            1 RES     
    7858 C5        -150.6112   -99.3684   261.2058 C5            1 RES     
    7859 C5        -149.2996   -98.6525   261.6005 C5            1 RES     
    7860 C5        -148.1409   -99.6052   261.9512 C5            1 RES     
    7861 C5        -146.8393   -98.8708   262.3315 C5            1 RES     
    7862 C5        -146.2036   -98.1025   261.1566 C5            1 RES     
    7863 C5        -144.9054   -97.3680   261.5370 C5            1 RES     
    7864 C5        -143.7723   -98.3017   261.9652 C5            1 RES     
    7865 H6        -153.3558  -111.3216   254.7794 H6            1 RES     
    7866 H6        -154.6287  -111.6428   253.5579 H6            1 RES     
    7867 H6        -155.0052  -111.8569   255.3087 H6            1 RES     
    7868 H6        -154.3367  -109.1861   253.8907 H6            1 RES     
    7869 H6        -155.9804  -109.7553   254.3535 H6            1 RES     
    7870 H6        -155.1775  -108.1148   255.9729 H6            1 RES     
    7871 H6        -155.3895  -109.7253   256.7477 H6            1 RES     
    7872 H6        -152.6731  -108.5282   255.8345 H6            1 RES     
    7873 H6        -152.9314  -110.1146   256.6650 H6            1 RES     
    7874 H6        -153.5879  -107.3229   257.8147 H6            1 RES     
    7875 H6        -153.9784  -108.9193   258.5878 H6            1 RES     
    7876 H6        -151.6772  -109.5615   258.7096 H6            1 RES     
    7877 H6        -151.0931  -108.0361   257.9607 H6            1 RES     
    7878 H6        -152.7472  -108.2417   260.5693 H6            1 RES     
    7879 H6        -150.9705  -108.2323   260.5173 H6            1 RES     
    7880 H6        -151.6507  -105.9491   258.9834 H6            1 RES     
    7881 H6        -150.8126  -106.0085   260.5464 H6            1 RES     
    7882 H6        -153.7795  -105.8701   260.1298 H6            1 RES     
    7883 H6        -153.0483  -107.0065   262.2438 H6            1 RES     
    7884 H6        -152.4060  -105.4805   262.8591 H6            1 RES     
    7885 H6        -154.7944  -104.5630   262.8061 H6            1 RES     
    7886 H6        -155.2881  -106.0021   261.8396 H6            1 RES     
    7887 H6        -154.3715  -106.1711   264.7669 H6            1 RES     
    7888 H6        -154.7185  -107.5540   263.6606 H6            1 RES     
    7889 H6        -156.7782  -105.4214   264.4890 H6            1 RES     
    7890 H6        -157.0189  -106.6874   263.2315 H6            1 RES     
    7891 H6        -156.6568  -108.5092   264.8480 H6            1 RES     
    7892 H6        -158.0469  -107.4518   265.2685 H6            1 RES     
    7893 H6        -156.6759  -106.2755   266.9830 H6            1 RES     
    7894 H6        -155.2660  -107.3527   266.6002 H6            1 RES     
    7895 H6        -156.7756  -108.0523   267.2819 H6            1 RES     
    7896 H6        -152.3379  -103.8553   259.4130 H6            1 RES     
    7897 H6        -151.8111  -103.7818   261.1224 H6            1 RES     
    7898 H6        -151.8335  -101.7391   260.2644 H6            1 RES     
    7899 H6        -153.1488  -100.7044   259.9974 H6            1 RES     
    7900 H6        -152.6188  -101.7580   262.8303 H6            1 RES     
    7901 H6        -154.7071  -100.4553   262.4257 H6            1 RES     
    7902 H6        -153.6348   -99.7843   263.6955 H6            1 RES     
    7903 H6        -152.8580   -97.9635   262.2128 H6            1 RES     
    7904 H6        -153.7509   -98.6687   260.8471 H6            1 RES     
    7905 H6        -155.0283   -96.8242   261.5993 H6            1 RES     
    7906 H6        -155.9060   -98.2911   262.0913 H6            1 RES     
    7907 H6        -155.0561   -98.0179   264.4418 H6            1 RES     
    7908 H6        -156.0058   -96.6150   263.8581 H6            1 RES     
    7909 H6        -152.9217   -96.7240   264.0838 H6            1 RES     
    7910 H6        -154.0668   -95.8818   265.1717 H6            1 RES     
    7911 H6        -154.8019   -94.3950   263.2887 H6            1 RES     
    7912 H6        -153.0344   -94.2741   263.6241 H6            1 RES     
    7913 H6        -153.5982   -95.1952   262.1962 H6            1 RES     
    7914 H6        -150.4569  -101.1363   262.3975 H6            1 RES     
    7915 H6        -151.1526   -99.7606   263.3055 H6            1 RES     
    7916 H6        -151.3176   -98.5716   260.9326 H6            1 RES     
    7917 H6        -150.4363   -99.9614   260.2859 H6            1 RES     
    7918 H6        -149.0107   -98.0186   260.7369 H6            1 RES     
    7919 H6        -149.4971   -97.9855   262.4685 H6            1 RES     
    7920 H6        -147.9422  -100.2957   261.1032 H6            1 RES     
    7921 H6        -148.4364  -100.2092   262.8343 H6            1 RES     
    7922 H6        -147.0380   -98.1765   263.1774 H6            1 RES     
    7923 H6        -146.1236   -99.6447   262.6782 H6            1 RES     
    7924 H6        -146.9111   -97.3292   260.7951 H6            1 RES     
    7925 H6        -145.9958   -98.8055   260.3205 H6            1 RES     
    7926 H6        -144.5587   -96.8023   260.6446 H6            1 RES     
    7927 H6        -145.1094   -96.6378   262.3498 H6            1 RES     
    7928 H6        -144.0296   -98.8472   262.8954 H6            1 RES     
    7929 H6        -142.8595   -97.7019   262.1671 H6            1 RES     
    7930 H6        -143.5461   -99.0298   261.1579 H6            1 RES     
    7931 C0        -157.6335  -114.6826   257.2176 C0            1 RES     
    7932 C0        -158.9839  -115.3984   257.2635 C0            1 RES     
    7933 C0        -159.8801  -114.7175   258.0173 C0            1 RES     
    7934 S1        -161.3956  -115.4274   258.0499 S1            1 RES     
    7935 C0        -160.9046  -116.7020   257.0318 C0            1 RES     
    7936 C0        -159.5669  -116.5047   256.6489 C0            1 RES     
    7937 C0        -159.3091  -113.4829   258.4325 C0            1 RES     
    7938 C0        -158.0906  -113.4094   257.9463 C0            1 RES     
    7939 C0        -157.5376  -112.0757   258.0917 C0            1 RES     
    7940 C0        -158.4405  -111.2410   258.7327 C0            1 RES     
    7941 S1        -159.9904  -112.0314   259.2115 S1            1 RES     
    7942 H2        -159.0878  -117.1171   255.9151 H2            1 RES     
    7943 H2        -156.6267  -111.7232   257.6394 H2            1 RES     
    7944 N3        -161.8561  -120.0965   255.7044 N3            1 RES     
    7945 C0        -161.1268  -119.0218   256.1197 C0            1 RES     
    7946 C0        -161.7462  -117.8411   256.5767 C0            1 RES     
    7947 C0        -163.1507  -117.8273   256.5964 C0            1 RES     
    7948 N3        -163.9046  -116.7714   257.0034 N3            1 RES     
    7949 S1        -165.4467  -117.3232   256.7748 S1            1 RES     
    7950 N3        -165.2381  -118.8506   256.1818 N3            1 RES     
    7951 C0        -163.8849  -118.9578   256.1478 C0            1 RES     
    7952 C0        -163.2172  -120.0918   255.7041 C0            1 RES     
    7953 H4        -160.0541  -119.1024   256.1236 H4            1 RES     
    7954 C5        -160.7719  -121.1271   250.4320 C5            1 RES     
    7955 C5        -160.7108  -119.6831   250.9326 C5            1 RES     
    7956 C5        -160.1756  -119.5481   252.3692 C5            1 RES     
    7957 C5        -158.7289  -120.0477   252.5526 C5            1 RES     
    7958 C5        -158.2631  -119.8244   254.0018 C5            1 RES     
    7959 C5        -156.9144  -120.4935   254.3021 C5            1 RES     
    7960 C5        -156.4919  -120.3361   255.7823 C5            1 RES     
    7961 C5        -155.8607  -118.9569   256.1487 C5            1 RES     
    7962 C5        -156.6156  -118.1023   257.2132 C5            1 RES     
    7963 C5        -156.7499  -118.8396   258.5775 C5            1 RES     
    7964 C5        -157.9418  -118.3288   259.4084 C5            1 RES     
    7965 C5        -158.3803  -119.3657   260.4647 C5            1 RES     
    7966 C5        -159.7334  -118.9794   261.0889 C5            1 RES     
    7967 C5        -160.3659  -120.1099   261.9203 C5            1 RES     
    7968 C5        -159.5689  -120.4773   263.1671 C5            1 RES     
    7969 C5        -155.9004  -116.7145   257.2972 C5            1 RES     
    7970 C0        -156.4428  -115.4056   257.9905 C0            1 RES     
    7971 C5        -155.1709  -114.4616   258.1317 C5            1 RES     
    7972 C5        -154.5562  -114.4026   259.5701 C5            1 RES     
    7973 C5        -155.2387  -113.3473   260.5017 C5            1 RES     
    7974 C5        -154.8857  -111.8703   260.2079 C5            1 RES     
    7975 C5        -155.7080  -110.8490   261.0147 C5            1 RES     
    7976 C5        -155.3786  -110.7722   262.5177 C5            1 RES     
    7977 C5        -153.9370  -110.3301   262.8498 C5            1 RES     
    7978 C5        -153.5824  -108.9423   262.3057 C5            1 RES     
    7979 C5        -152.9943  -114.3043   259.5824 C5            1 RES     
    7980 C5        -152.3281  -113.2947   258.6122 C5            1 RES     
    7981 C5        -150.8116  -113.1248   258.8573 C5            1 RES     
    7982 C5        -149.9978  -114.4239   258.7055 C5            1 RES     
    7983 C5        -148.4866  -114.2300   258.9436 C5            1 RES     
    7984 C5        -147.8032  -113.3628   257.8685 C5            1 RES     
    7985 C5        -146.2951  -113.1678   258.1074 C5            1 RES     
    7986 C5        -145.4880  -114.4652   258.0391 C5            1 RES     
    7987 H6        -159.7567  -121.5670   250.3601 H6            1 RES     
    7988 H6        -161.2219  -121.1452   249.4164 H6            1 RES     
    7989 H6        -161.3987  -121.7473   251.1073 H6            1 RES     
    7990 H6        -160.0875  -119.0793   250.2393 H6            1 RES     
    7991 H6        -161.7448  -119.2728   250.9143 H6            1 RES     
    7992 H6        -160.2244  -118.4732   252.6483 H6            1 RES     
    7993 H6        -160.8479  -120.1122   253.0528 H6            1 RES     
    7994 H6        -158.0448  -119.5147   251.8568 H6            1 RES     
    7995 H6        -158.6958  -121.1350   252.3300 H6            1 RES     
    7996 H6        -158.2205  -118.7353   254.2173 H6            1 RES     
    7997 H6        -159.0062  -120.3108   254.6637 H6            1 RES     
    7998 H6        -157.0556  -121.5805   254.1106 H6            1 RES     
    7999 H6        -156.1094  -120.1314   253.6269 H6            1 RES     
    8000 H6        -157.3549  -120.6175   256.4189 H6            1 RES     
    8001 H6        -155.7017  -121.0934   255.9717 H6            1 RES     
    8002 H6        -155.7935  -118.3665   255.2073 H6            1 RES     
    8003 H6        -154.8123  -119.1139   256.4831 H6            1 RES     
    8004 H6        -157.5923  -118.0312   256.7897 H6            1 RES     
    8005 H6        -156.9911  -119.8940   258.3592 H6            1 RES     
    8006 H6        -155.7991  -118.8600   259.1529 H6            1 RES     
    8007 H6        -157.7301  -117.3343   259.8551 H6            1 RES     
    8008 H6        -158.8037  -118.2279   258.7160 H6            1 RES     
    8009 H6        -157.5943  -119.4967   261.2389 H6            1 RES     
    8010 H6        -158.5322  -120.3394   259.9476 H6            1 RES     
    8011 H6        -159.6295  -118.0535   261.6933 H6            1 RES     
    8012 H6        -160.4505  -118.7749   260.2624 H6            1 RES     
    8013 H6        -160.4907  -121.0148   261.2844 H6            1 RES     
    8014 H6        -161.3777  -119.7805   262.2422 H6            1 RES     
    8015 H6        -159.4679  -119.5927   263.8299 H6            1 RES     
    8016 H6        -158.5639  -120.8616   262.8986 H6            1 RES     
    8017 H6        -160.1087  -121.2761   263.7200 H6            1 RES     
    8018 H6        -155.6793  -116.3853   256.2574 H6            1 RES     
    8019 H6        -154.9239  -116.9665   257.7729 H6            1 RES     
    8020 H6        -154.3872  -114.8423   257.4434 H6            1 RES     
    8021 H6        -155.3081  -113.4486   257.7289 H6            1 RES     
    8022 H6        -154.7662  -115.3895   260.0430 H6            1 RES     
    8023 H6        -156.3386  -113.4934   260.4349 H6            1 RES     
    8024 H6        -154.9376  -113.5532   261.5512 H6            1 RES     
    8025 H6        -153.8165  -111.6736   260.3990 H6            1 RES     
    8026 H6        -155.0750  -111.6674   259.1437 H6            1 RES     
    8027 H6        -155.5489  -109.8426   260.5736 H6            1 RES     
    8028 H6        -156.7855  -111.0805   260.8942 H6            1 RES     
    8029 H6        -155.5725  -111.7576   262.9898 H6            1 RES     
    8030 H6        -156.0747  -110.0375   262.9793 H6            1 RES     
    8031 H6        -153.2022  -111.0704   262.4725 H6            1 RES     
    8032 H6        -153.8383  -110.2970   263.9563 H6            1 RES     
    8033 H6        -154.2947  -108.1804   262.6879 H6            1 RES     
    8034 H6        -152.5587  -108.6651   262.6353 H6            1 RES     
    8035 H6        -153.5905  -108.9305   261.1965 H6            1 RES     
    8036 H6        -152.6039  -115.3027   259.2918 H6            1 RES     
    8037 H6        -152.6689  -114.1154   260.6287 H6            1 RES     
    8038 H6        -152.7609  -112.2879   258.6990 H6            1 RES     
    8039 H6        -152.4907  -113.6167   257.5642 H6            1 RES     
    8040 H6        -150.4528  -112.3740   258.1234 H6            1 RES     
    8041 H6        -150.6527  -112.7136   259.8786 H6            1 RES     
    8042 H6        -150.1605  -114.8628   257.6973 H6            1 RES     
    8043 H6        -150.3501  -115.1513   259.4664 H6            1 RES     
    8044 H6        -148.3228  -113.7871   259.9506 H6            1 RES     
    8045 H6        -148.0272  -115.2400   258.9295 H6            1 RES     
    8046 H6        -148.2573  -112.3513   257.8665 H6            1 RES     
    8047 H6        -147.9599  -113.8190   256.8666 H6            1 RES     
    8048 H6        -145.9091  -112.4872   257.3173 H6            1 RES     
    8049 H6        -146.1291  -112.6810   259.0927 H6            1 RES     
    8050 H6        -145.7786  -115.1635   258.8495 H6            1 RES     
    8051 H6        -144.4092  -114.2327   258.1645 H6            1 RES     
    8052 H6        -145.6318  -114.9579   257.0545 H6            1 RES     
    8053 C0        -164.5207  -124.1493   252.8451 C0            1 RES     
    8054 C0        -166.0115  -124.4373   253.0255 C0            1 RES     
    8055 C0        -166.5159  -123.7835   254.0995 C0            1 RES     
    8056 S1        -168.1606  -124.0158   254.3058 S1            1 RES     
    8057 C0        -168.2684  -125.0209   252.9346 C0            1 RES     
    8058 C0        -167.0088  -125.1046   252.3171 C0            1 RES     
    8059 C0        -165.5153  -122.9373   254.6519 C0            1 RES     
    8060 C0        -164.4224  -123.0704   253.9346 C0            1 RES     
    8061 C0        -163.4434  -122.0496   254.2591 C0            1 RES     
    8062 C0        -163.9188  -121.2204   255.2637 C0            1 RES     
    8063 S1        -165.5598  -121.6471   255.8812 S1            1 RES     
    8064 H2        -166.8680  -125.5843   251.3721 H2            1 RES     
    8065 H2        -162.5401  -121.8512   253.7084 H2            1 RES     
    8066 N3        -170.4687  -127.4672   251.1005 N3            1 RES     
    8067 C0        -169.3734  -126.8116   251.5800 C0            1 RES     
    8068 C0        -169.4953  -125.6921   252.4276 C0            1 RES     
    8069 C0        -170.7982  -125.2903   252.7658 C0            1 RES     
    8070 N3        -171.0939  -124.2324   253.5673 N3            1 RES     
    8071 S1        -172.7477  -124.2362   253.5695 S1            1 RES     
    8072 N3        -173.1431  -125.5173   252.6050 N3            1 RES     
    8073 C0        -171.9211  -125.9858   252.2429 C0            1 RES     
    8074 C0        -171.7368  -127.0801   251.4080 C0            1 RES     
    8075 H4        -168.3990  -127.1880   251.3233 H4            1 RES     
    8076 C5        -170.5386  -127.1711   245.6284 C5            1 RES     
    8077 C5        -169.9322  -126.0151   246.4254 C5            1 RES     
    8078 C5        -169.1867  -126.4626   247.6953 C5            1 RES     
    8079 C5        -167.9773  -127.3797   247.4262 C5            1 RES     
    8080 C5        -167.2655  -127.7306   248.7442 C5            1 RES     
    8081 C5        -166.1872  -128.8093   248.5682 C5            1 RES     
    8082 C5        -165.5334  -129.2174   249.9099 C5            1 RES     
    8083 C5        -164.4354  -128.2415   250.4364 C5            1 RES     
    8084 C5        -164.7067  -127.5598   251.8129 C5            1 RES     
    8085 C5        -164.8855  -128.5951   252.9615 C5            1 RES     
    8086 C5        -165.7113  -128.0362   254.1352 C5            1 RES     
    8087 C5        -166.3164  -129.1697   254.9909 C5            1 RES     
    8088 C5        -167.3628  -128.6188   255.9764 C5            1 RES     
    8089 C5        -168.2115  -129.7175   256.6413 C5            1 RES     
    8090 C5        -167.4152  -130.6422   257.5552 C5            1 RES     
    8091 C5        -163.5673  -126.5170   252.0554 C5            1 RES     
    8092 C0        -163.5415  -125.3712   253.1390 C0            1 RES     
    8093 C5        -162.0219  -124.9074   253.2065 C5            1 RES     
    8094 C5        -161.2273  -125.4472   254.4425 C5            1 RES     
    8095 C5        -161.3831  -124.5635   255.7239 C5            1 RES     
    8096 C5        -160.6047  -123.2268   255.7114 C5            1 RES     
    8097 C5        -160.9198  -122.2982   256.8983 C5            1 RES     
    8098 C5        -160.3763  -122.7606   258.2637 C5            1 RES     
    8099 C5        -158.8382  -122.8590   258.3563 C5            1 RES     
    8100 C5        -158.1231  -121.5312   258.0859 C5            1 RES     
    8101 C5        -159.7360  -125.8002   254.1251 C5            1 RES     
    8102 C5        -158.9154  -124.7809   253.2932 C5            1 RES     
    8103 C5        -157.4100  -125.1237   253.2231 C5            1 RES     
    8104 C5        -157.1033  -126.4955   252.5928 C5            1 RES     
    8105 C5        -155.5959  -126.8129   252.5228 C5            1 RES     
    8106 C5        -154.8213  -125.8978   251.5545 C5            1 RES     
    8107 C5        -153.3163  -126.2136   251.4863 C5            1 RES     
    8108 C5        -153.0036  -127.6063   250.9369 C5            1 RES     
    8109 H6        -169.7476  -127.8377   245.2290 H6            1 RES     
    8110 H6        -171.1068  -126.7640   244.7650 H6            1 RES     
    8111 H6        -171.2345  -127.7593   246.2636 H6            1 RES     
    8112 H6        -169.2476  -125.4356   245.7703 H6            1 RES     
    8113 H6        -170.7632  -125.3440   246.7369 H6            1 RES     
    8114 H6        -168.8363  -125.5481   248.2214 H6            1 RES     
    8115 H6        -169.9052  -126.9891   248.3617 H6            1 RES     
    8116 H6        -167.2597  -126.8813   246.7384 H6            1 RES     
    8117 H6        -168.3384  -128.3175   246.9543 H6            1 RES     
    8118 H6        -166.8340  -126.8104   249.1928 H6            1 RES     
    8119 H6        -168.0272  -128.1599   249.4241 H6            1 RES     
    8120 H6        -166.7066  -129.7070   248.1650 H6            1 RES     
    8121 H6        -165.4109  -128.5071   247.8328 H6            1 RES     
    8122 H6        -166.3426  -129.4182   250.6408 H6            1 RES     
    8123 H6        -165.0210  -130.1871   249.7342 H6            1 RES     
    8124 H6        -164.3088  -127.4454   249.6686 H6            1 RES     
    8125 H6        -163.4627  -128.7777   250.4798 H6            1 RES     
    8126 H6        -165.6537  -127.0961   251.6489 H6            1 RES     
    8127 H6        -165.4910  -129.4271   252.5630 H6            1 RES     
    8128 H6        -163.9246  -129.0494   253.2868 H6            1 RES     
    8129 H6        -165.1211  -127.3176   254.7422 H6            1 RES     
    8130 H6        -166.5789  -127.4990   253.6980 H6            1 RES     
    8131 H6        -165.5181  -129.7370   255.5156 H6            1 RES     
    8132 H6        -166.8537  -129.8656   254.3087 H6            1 RES     
    8133 H6        -166.8739  -127.9787   256.7410 H6            1 RES     
    8134 H6        -168.0799  -127.9884   255.4039 H6            1 RES     
    8135 H6        -168.7175  -130.3233   255.8566 H6            1 RES     
    8136 H6        -169.0009  -129.2261   257.2506 H6            1 RES     
    8137 H6        -166.9345  -130.0561   258.3660 H6            1 RES     
    8138 H6        -166.6429  -131.1975   256.9851 H6            1 RES     
    8139 H6        -168.1063  -131.3822   258.0133 H6            1 RES     
    8140 H6        -163.3975  -125.9741   251.0990 H6            1 RES     
    8141 H6        -162.6733  -127.1612   252.2265 H6            1 RES     
    8142 H6        -161.5137  -125.2742   252.2901 H6            1 RES     
    8143 H6        -161.8702  -123.8250   253.0930 H6            1 RES     
    8144 H6        -161.6844  -126.4285   254.7065 H6            1 RES     
    8145 H6        -162.4670  -124.3681   255.8743 H6            1 RES     
    8146 H6        -161.0234  -125.1434   256.6007 H6            1 RES     
    8147 H6        -159.5153  -123.4036   255.6973 H6            1 RES     
    8148 H6        -160.8632  -122.6767   254.7948 H6            1 RES     
    8149 H6        -160.4992  -121.2941   256.6803 H6            1 RES     
    8150 H6        -162.0187  -122.1716   256.9730 H6            1 RES     
    8151 H6        -160.8180  -123.7447   258.5238 H6            1 RES     
    8152 H6        -160.7170  -122.0284   259.0287 H6            1 RES     
    8153 H6        -158.4514  -123.6318   257.6611 H6            1 RES     
    8154 H6        -158.5800  -123.1803   259.3885 H6            1 RES     
    8155 H6        -158.4810  -120.7464   258.7859 H6            1 RES     
    8156 H6        -157.0300  -121.6621   258.2319 H6            1 RES     
    8157 H6        -158.2823  -121.1935   257.0413 H6            1 RES     
    8158 H6        -159.7438  -126.7374   253.5292 H6            1 RES     
    8159 H6        -159.2230  -126.0252   255.0857 H6            1 RES     
    8160 H6        -158.9729  -123.7644   253.7080 H6            1 RES     
    8161 H6        -159.3210  -124.7227   252.2633 H6            1 RES     
    8162 H6        -156.9291  -124.3236   252.6235 H6            1 RES     
    8163 H6        -156.9822  -125.0915   254.2494 H6            1 RES     
    8164 H6        -157.5421  -126.5558   251.5733 H6            1 RES     
    8165 H6        -157.5667  -127.2838   253.2220 H6            1 RES     
    8166 H6        -155.1549  -126.7488   253.5420 H6            1 RES     
    8167 H6        -155.5045  -127.8611   252.1702 H6            1 RES     
    8168 H6        -154.9095  -124.8451   251.8912 H6            1 RES     
    8169 H6        -155.2594  -125.9775   250.5356 H6            1 RES     
    8170 H6        -152.8411  -125.4689   250.8110 H6            1 RES     
    8171 H6        -152.8617  -126.1037   252.4947 H6            1 RES     
    8172 H6        -153.3928  -128.4000   251.6058 H6            1 RES     
    8173 H6        -151.9025  -127.7339   250.8668 H6            1 RES     
    8174 H6        -153.4393  -127.7281   249.9229 H6            1 RES     
    8175 C0        -174.7004  -129.5853   248.0496 C0            1 RES     
    8176 C0        -176.1613  -129.4821   248.4888 C0            1 RES     
    8177 C0        -176.2643  -129.0570   249.7710 C0            1 RES     
    8178 S1        -177.8467  -128.8672   250.2824 S1            1 RES     
    8179 C0        -178.4731  -129.3542   248.7749 C0            1 RES     
    8180 C0        -177.4124  -129.6042   247.8876 C0            1 RES     
    8181 C0        -174.9725  -128.7266   250.2658 C0            1 RES     
    8182 C0        -174.0978  -128.9457   249.3101 C0            1 RES     
    8183 C0        -172.8003  -128.3829   249.6349 C0            1 RES     
    8184 C0        -172.8277  -127.7854   250.8859 C0            1 RES     
    8185 S1        -174.4135  -127.8946   251.7399 S1            1 RES     
    8186 H2        -177.5728  -129.8057   246.8499 H2            1 RES     
    8187 H2        -171.9690  -128.2945   248.9568 H2            1 RES     
    8188 N3        -181.5947  -130.4346   246.9644 N3            1 RES     
    8189 C0        -180.2882  -130.2837   247.3244 C0            1 RES     
    8190 C0        -179.9115  -129.4742   248.4150 C0            1 RES     
    8191 C0        -180.9461  -128.8397   249.1223 C0            1 RES     
    8192 N3        -180.7584  -128.0242   250.1941 N3            1 RES     
    8193 S1        -182.3020  -127.5633   250.5678 S1            1 RES     
    8194 N3        -183.2314  -128.3407   249.4453 N3            1 RES     
    8195 C0        -182.2977  -129.0066   248.7182 C0            1 RES     
    8196 C0        -182.6061  -129.8142   247.6313 C0            1 RES     
    8197 H4        -179.5401  -130.8266   246.7741 H4            1 RES     
    8198 C5        -182.3289  -128.5430   241.8734 C5            1 RES     
    8199 C5        -181.2677  -127.8902   242.7606 C5            1 RES     
    8200 C5        -180.5428  -128.8804   243.6893 C5            1 RES     
    8201 C5        -179.7567  -129.9799   242.9481 C5            1 RES     
    8202 C5        -179.0244  -130.8865   243.9525 C5            1 RES     
    8203 C5        -178.4013  -132.1241   243.2912 C5            1 RES     
    8204 C5        -177.7387  -133.0735   244.3177 C5            1 RES     
    8205 C5        -176.3168  -132.6445   244.7963 C5            1 RES     
    8206 C5        -176.1505  -132.3479   246.3187 C5            1 RES     
    8207 C5        -176.4999  -133.5800   247.2036 C5            1 RES     
    8208 C5        -176.9202  -133.1804   248.6303 C5            1 RES     
    8209 C5        -177.7409  -134.2966   249.3113 C5            1 RES     
    8210 C5        -178.3960  -133.7873   250.6079 C5            1 RES     
    8211 C5        -179.4591  -134.7473   251.1714 C5            1 RES     
    8212 C5        -178.8951  -136.0839   251.6405 C5            1 RES     
    8213 C5        -174.7075  -131.7863   246.5349 C5            1 RES     
    8214 C0        -174.1513  -131.0634   247.8217 C0            1 RES     
    8215 C5        -172.5703  -131.0865   247.6516 C5            1 RES     
    8216 C5        -171.8349  -132.1650   248.5155 C5            1 RES     
    8217 C5        -171.5073  -131.6885   249.9691 C5            1 RES     
    8218 C5        -170.3394  -130.6821   250.0942 C5            1 RES     
    8219 C5        -170.1586  -130.0921   251.5046 C5            1 RES     
    8220 C5        -169.6137  -131.0671   252.5658 C5            1 RES     
    8221 C5        -168.1986  -131.6167   252.2839 C5            1 RES     
    8222 C5        -167.1287  -130.5250   252.1772 C5            1 RES     
    8223 C5        -170.6054  -132.8141   247.7970 C5            1 RES     
    8224 C5        -169.6183  -131.8698   247.0633 C5            1 RES     
    8225 C5        -168.3377  -132.5859   246.5778 C5            1 RES     
    8226 C5        -168.5953  -133.7415   245.5921 C5            1 RES     
    8227 C5        -167.3042  -134.4350   245.1123 C5            1 RES     
    8228 C5        -166.4137  -133.5331   244.2356 C5            1 RES     
    8229 C5        -165.1241  -134.2249   243.7583 C5            1 RES     
    8230 C5        -165.3717  -135.4249   242.8429 C5            1 RES     
    8231 H6        -181.8682  -129.2578   241.1617 H6            1 RES     
    8232 H6        -182.8448  -127.7585   241.2797 H6            1 RES     
    8233 H6        -183.0842  -129.0708   242.4935 H6            1 RES     
    8234 H6        -180.5286  -127.3614   242.1220 H6            1 RES     
    8235 H6        -181.7765  -127.1344   243.3991 H6            1 RES     
    8236 H6        -179.8386  -128.2972   244.3215 H6            1 RES     
    8237 H6        -181.2944  -129.3546   244.3585 H6            1 RES     
    8238 H6        -179.0184  -129.5250   242.2523 H6            1 RES     
    8239 H6        -180.4710  -130.5975   242.3641 H6            1 RES     
    8240 H6        -178.2536  -130.2981   244.4946 H6            1 RES     
    8241 H6        -179.7821  -131.2637   244.6670 H6            1 RES     
    8242 H6        -179.2402  -132.6805   242.8171 H6            1 RES     
    8243 H6        -177.6799  -131.8510   242.4913 H6            1 RES     
    8244 H6        -178.4577  -133.2434   245.1444 H6            1 RES     
    8245 H6        -177.6072  -134.0525   243.8096 H6            1 RES     
    8246 H6        -176.0420  -131.7278   244.2275 H6            1 RES     
    8247 H6        -175.5812  -133.4208   244.4931 H6            1 RES     
    8248 H6        -176.9030  -131.6099   246.4852 H6            1 RES     
    8249 H6        -177.3967  -134.0535   246.7687 H6            1 RES     
    8250 H6        -175.7088  -134.3606   247.1887 H6            1 RES     
    8251 H6        -176.0460  -132.8673   249.2394 H6            1 RES     
    8252 H6        -177.6125  -132.3176   248.5377 H6            1 RES     
    8253 H6        -177.1110  -135.1931   249.4953 H6            1 RES     
    8254 H6        -178.5687  -134.5819   248.6245 H6            1 RES     
    8255 H6        -177.6202  -133.5634   251.3704 H6            1 RES     
    8256 H6        -178.9359  -132.8420   250.3751 H6            1 RES     
    8257 H6        -180.2422  -134.9291   250.4016 H6            1 RES     
    8258 H6        -179.9469  -134.2545   252.0403 H6            1 RES     
    8259 H6        -178.1384  -135.9206   252.4360 H6            1 RES     
    8260 H6        -178.4389  -136.6416   250.7976 H6            1 RES     
    8261 H6        -179.7211  -136.6999   252.0567 H6            1 RES     
    8262 H6        -174.5031  -131.0579   245.7188 H6            1 RES     
    8263 H6        -174.0634  -132.6764   246.3449 H6            1 RES     
    8264 H6        -172.3465  -131.2965   246.5845 H6            1 RES     
    8265 H6        -172.0855  -130.1068   247.7628 H6            1 RES     
    8266 H6        -172.5501  -133.0106   248.6391 H6            1 RES     
    8267 H6        -172.4325  -131.2492   250.4012 H6            1 RES     
    8268 H6        -171.2413  -132.5762   250.5820 H6            1 RES     
    8269 H6        -169.3838  -131.1459   249.7941 H6            1 RES     
    8270 H6        -170.5264  -129.8384   249.4138 H6            1 RES     
    8271 H6        -169.4636  -129.2289   251.4382 H6            1 RES     
    8272 H6        -171.1312  -129.6892   251.8524 H6            1 RES     
    8273 H6        -170.3159  -131.9185   252.6815 H6            1 RES     
    8274 H6        -169.5812  -130.5260   253.5371 H6            1 RES     
    8275 H6        -168.1917  -132.2283   251.3587 H6            1 RES     
    8276 H6        -167.9197  -132.2850   253.1270 H6            1 RES     
    8277 H6        -167.1040  -129.9120   253.1032 H6            1 RES     
    8278 H6        -166.1320  -130.9948   252.0384 H6            1 RES     
    8279 H6        -167.3116  -129.8660   251.3039 H6            1 RES     
    8280 H6        -171.0074  -133.4940   247.0162 H6            1 RES     
    8281 H6        -170.0669  -133.4451   248.5375 H6            1 RES     
    8282 H6        -169.2764  -131.0461   247.7060 H6            1 RES     
    8283 H6        -170.1217  -131.4013   246.1941 H6            1 RES     
    8284 H6        -167.7075  -131.8145   246.0892 H6            1 RES     
    8285 H6        -167.7840  -132.9771   247.4597 H6            1 RES     
    8286 H6        -169.1675  -133.3749   244.7126 H6            1 RES     
    8287 H6        -169.2009  -134.5158   246.1076 H6            1 RES     
    8288 H6        -166.7287  -134.7986   245.9919 H6            1 RES     
    8289 H6        -167.6163  -135.3154   244.5133 H6            1 RES     
    8290 H6        -166.0994  -132.6447   244.8197 H6            1 RES     
    8291 H6        -166.9917  -133.1846   243.3519 H6            1 RES     
    8292 H6        -164.5283  -133.4803   243.1864 H6            1 RES     
    8293 H6        -164.5222  -134.5474   244.6354 H6            1 RES     
    8294 H6        -165.9045  -136.2366   243.3779 H6            1 RES     
    8295 H6        -164.3967  -135.8307   242.4987 H6            1 RES     
    8296 H6        -165.9607  -135.1170   241.9535 H6            1 RES     
    8297 C0        -186.6729  -130.2877   244.5372 C0            1 RES     
    8298 C0        -187.9399  -129.9111   245.3058 C0            1 RES     
    8299 C0        -187.7151  -129.8688   246.6411 C0            1 RES     
    8300 S1        -189.0565  -129.4001   247.5256 S1            1 RES     
    8301 C0        -190.0138  -129.2279   246.1271 C0            1 RES     
    8302 C0        -189.2318  -129.4950   244.9904 C0            1 RES     
    8303 C0        -186.3311  -130.0749   246.8953 C0            1 RES     
    8304 C0        -185.7218  -130.2414   245.7431 C0            1 RES     
    8305 C0        -184.2791  -130.1870   245.8894 C0            1 RES     
    8306 C0        -183.9309  -129.9993   247.2185 C0            1 RES     
    8307 S1        -185.3268  -129.9031   248.3581 S1            1 RES     
    8308 H2        -189.5937  -129.3304   243.9980 H2            1 RES     
    8309 H2        -183.5694  -130.1415   245.0815 H2            1 RES     
    8310 N3        -193.5382  -128.8078   244.8654 N3            1 RES     
    8311 C0        -192.2189  -129.1425   244.9468 C0            1 RES     
    8312 C0        -191.4459  -128.8278   246.0826 C0            1 RES     
    8313 C0        -192.1013  -128.1639   247.1329 C0            1 RES     
    8314 N3        -191.5053  -127.7850   248.2949 N3            1 RES     
    8315 S1        -192.7399  -127.0391   249.1038 S1            1 RES     
    8316 N3        -194.0222  -127.1597   248.0698 N3            1 RES     
    8317 C0        -193.4742  -127.8181   247.0161 C0            1 RES     
    8318 C0        -194.1822  -128.1515   245.8689 C0            1 RES     
    8319 H4        -191.7784  -129.6880   244.1310 H4            1 RES     
    8320 C5        -194.3091  -125.3827   240.6570 C5            1 RES     
    8321 C5        -192.9781  -125.3441   241.4096 C5            1 RES     
    8322 C5        -192.5003  -126.7247   241.8935 C5            1 RES     
    8323 C5        -192.2359  -127.7337   240.7586 C5            1 RES     
    8324 C5        -191.7129  -129.0621   241.3319 C5            1 RES     
    8325 C5        -191.6350  -130.1749   240.2770 C5            1 RES     
    8326 C5        -191.1881  -131.5293   240.8770 C5            1 RES     
    8327 C5        -189.6522  -131.6771   241.1096 C5            1 RES     
    8328 C5        -189.1853  -131.8983   242.5814 C5            1 RES     
    8329 C5        -189.7960  -133.1850   243.2093 C5            1 RES     
    8330 C5        -189.8554  -133.1192   244.7469 C5            1 RES     
    8331 C5        -190.8960  -134.1078   245.3152 C5            1 RES     
    8332 C5        -191.1563  -133.8375   246.8082 C5            1 RES     
    8333 C5        -192.3876  -134.5809   247.3564 C5            1 RES     
    8334 C5        -192.2393  -136.0983   247.3610 C5            1 RES     
    8335 C5        -187.6225  -131.8540   242.5920 C5            1 RES     
    8336 C0        -186.6832  -131.7263   243.8527 C0            1 RES     
    8337 C5        -185.2400  -132.1422   243.3302 C5            1 RES     
    8338 C5        -184.7908  -133.5875   243.7299 C5            1 RES     
    8339 C5        -184.1232  -133.6695   245.1423 C5            1 RES     
    8340 C5        -182.6821  -133.1147   245.2326 C5            1 RES     
    8341 C5        -182.1200  -133.0391   246.6638 C5            1 RES     
    8342 C5        -181.7864  -134.3939   247.3171 C5            1 RES     
    8343 C5        -180.6883  -135.2116   246.6033 C5            1 RES     
    8344 C5        -179.3429  -134.4835   246.5163 C5            1 RES     
    8345 C5        -183.9601  -134.3162   242.6217 C5            1 RES     
    8346 C5        -182.8287  -133.5160   241.9259 C5            1 RES     
    8347 C5        -181.9398  -134.3886   241.0109 C5            1 RES     
    8348 C5        -182.7018  -135.0838   239.8667 C5            1 RES     
    8349 C5        -181.7949  -135.9402   238.9600 C5            1 RES     
    8350 C5        -180.7878  -135.1098   238.1408 C5            1 RES     
    8351 C5        -179.8814  -135.9651   237.2372 C5            1 RES     
    8352 C5        -180.6389  -136.7244   236.1469 C5            1 RES     
    8353 H6        -194.2164  -125.9572   239.7131 H6            1 RES     
    8354 H6        -194.6132  -124.3469   240.3949 H6            1 RES     
    8355 H6        -195.1019  -125.8341   241.2905 H6            1 RES     
    8356 H6        -192.2027  -124.8817   240.7626 H6            1 RES     
    8357 H6        -193.1123  -124.6970   242.3048 H6            1 RES     
    8358 H6        -191.5612  -126.5746   242.4691 H6            1 RES     
    8359 H6        -193.2650  -127.1425   242.5851 H6            1 RES     
    8360 H6        -191.4937  -127.3219   240.0403 H6            1 RES     
    8361 H6        -193.1891  -127.9263   240.2228 H6            1 RES     
    8362 H6        -190.7225  -128.8997   241.8085 H6            1 RES     
    8363 H6        -192.4447  -129.4028   242.0903 H6            1 RES     
    8364 H6        -192.6687  -130.3088   239.8876 H6            1 RES     
    8365 H6        -190.9836  -129.8941   239.4216 H6            1 RES     
    8366 H6        -191.7993  -131.7243   241.7812 H6            1 RES     
    8367 H6        -191.4616  -132.3123   240.1381 H6            1 RES     
    8368 H6        -189.1714  -130.7501   240.7237 H6            1 RES     
    8369 H6        -189.2662  -132.5047   240.4757 H6            1 RES     
    8370 H6        -189.6189  -131.0609   243.0807 H6            1 RES     
    8371 H6        -190.8508  -133.2384   242.8895 H6            1 RES     
    8372 H6        -189.3192  -134.1166   242.8347 H6            1 RES     
    8373 H6        -188.8506  -133.2570   245.1992 H6            1 RES     
    8374 H6        -190.2279  -132.1088   245.0167 H6            1 RES     
    8375 H6        -190.5801  -135.1582   245.1379 H6            1 RES     
    8376 H6        -191.8592  -133.9348   244.7854 H6            1 RES     
    8377 H6        -190.2514  -134.0742   247.4070 H6            1 RES     
    8378 H6        -191.3788  -132.7537   246.9304 H6            1 RES     
    8379 H6        -193.2863  -134.3016   246.7622 H6            1 RES     
    8380 H6        -192.5573  -134.2476   248.4033 H6            1 RES     
    8381 H6        -191.3677  -136.3947   247.9811 H6            1 RES     
    8382 H6        -192.1170  -136.4897   246.3306 H6            1 RES     
    8383 H6        -193.1560  -136.5509   247.7968 H6            1 RES     
    8384 H6        -187.3044  -131.0070   241.9441 H6            1 RES     
    8385 H6        -187.3436  -132.7931   242.0593 H6            1 RES     
    8386 H6        -185.2505  -132.0848   242.2215 H6            1 RES     
    8387 H6        -184.4469  -131.4157   243.5551 H6            1 RES     
    8388 H6        -185.7212  -134.1954   243.8104 H6            1 RES     
    8389 H6        -184.7799  -133.1343   245.8620 H6            1 RES     
    8390 H6        -184.0838  -134.7350   245.4548 H6            1 RES     
    8391 H6        -181.9868  -133.7195   244.6251 H6            1 RES     
    8392 H6        -182.6720  -132.0919   244.8282 H6            1 RES     
    8393 H6        -181.1945  -132.4262   246.6460 H6            1 RES     
    8394 H6        -182.8448  -132.4991   247.3059 H6            1 RES     
    8395 H6        -182.7078  -135.0084   247.3859 H6            1 RES     
    8396 H6        -181.4404  -134.1927   248.3549 H6            1 RES     
    8397 H6        -181.0146  -135.5018   245.5837 H6            1 RES     
    8398 H6        -180.5317  -136.1476   247.1819 H6            1 RES     
    8399 H6        -178.9866  -134.2012   247.5298 H6            1 RES     
    8400 H6        -178.5885  -135.1526   246.0508 H6            1 RES     
    8401 H6        -179.4172  -133.5742   245.8853 H6            1 RES     
    8402 H6        -184.6701  -134.5961   241.8149 H6            1 RES     
    8403 H6        -183.5633  -135.2610   243.0534 H6            1 RES     
    8404 H6        -182.1462  -133.0474   242.6492 H6            1 RES     
    8405 H6        -183.2647  -132.6919   241.3265 H6            1 RES     
    8406 H6        -181.1645  -133.7177   240.5869 H6            1 RES     
    8407 H6        -181.4294  -135.1598   241.6290 H6            1 RES     
    8408 H6        -183.2373  -134.3305   239.2493 H6            1 RES     
    8409 H6        -183.4515  -135.7720   240.3099 H6            1 RES     
    8410 H6        -181.2554  -136.6918   239.5775 H6            1 RES     
    8411 H6        -182.4622  -136.4819   238.2582 H6            1 RES     
    8412 H6        -180.1178  -134.5572   238.8300 H6            1 RES     
    8413 H6        -181.3352  -134.3702   237.5165 H6            1 RES     
    8414 H6        -179.1587  -135.2847   236.7360 H6            1 RES     
    8415 H6        -179.3040  -136.6857   237.8560 H6            1 RES     
    8416 H6        -181.3303  -137.4730   236.5834 H6            1 RES     
    8417 H6        -179.9124  -137.2686   235.5070 H6            1 RES     
    8418 H6        -181.2109  -136.0170   235.5102 H6            1 RES     
    8419 C0        -198.5669  -126.5352   243.7477 C0            1 RES     
    8420 C0        -199.5160  -126.0597   244.8482 C0            1 RES     
    8421 C0        -199.1051  -126.4750   246.0704 C0            1 RES     
    8422 S1        -200.0768  -125.9282   247.3187 S1            1 RES     
    8423 C0        -201.1088  -125.0924   246.2517 C0            1 RES     
    8424 C0        -200.6273  -125.2238   244.9380 C0            1 RES     
    8425 C0        -197.8468  -127.1269   245.9510 C0            1 RES     
    8426 C0        -197.4953  -127.1132   244.6849 C0            1 RES     
    8427 C0        -196.1109  -127.5120   244.5111 C0            1 RES     
    8428 C0        -195.5375  -127.8273   245.7337 C0            1 RES     
    8429 S1        -196.6478  -127.6803   247.1485 S1            1 RES     
    8430 H2        -201.0494  -124.6811   244.1193 H2            1 RES     
    8431 H2        -195.5470  -127.4335   243.5976 H2            1 RES     
    8432 N3        -204.4339  -123.3482   245.9504 N3            1 RES     
    8433 C0        -203.3029  -124.0490   245.6520 C0            1 RES     
    8434 C0        -202.3181  -124.3110   246.6257 C0            1 RES     
    8435 C0        -202.5619  -123.8273   247.9218 C0            1 RES     
    8436 N3        -201.7172  -123.9886   248.9752 N3            1 RES     
    8437 S1        -202.5079  -123.1965   250.1926 S1            1 RES     
    8438 N3        -203.8891  -122.6436   249.4753 N3            1 RES     
    8439 C0        -203.7442  -123.0910   248.2015 C0            1 RES     
    8440 C0        -204.6762  -122.8609   247.1980 C0            1 RES     
    8441 H4        -203.1875  -124.4326   244.6537 H4            1 RES     
    8442 C5        -204.6063  -118.7696   242.9432 C5            1 RES     
    8443 C5        -203.2464  -119.3288   243.3643 C5            1 RES     
    8444 C5        -203.1911  -120.8666   243.3920 C5            1 RES     
    8445 C5        -203.4384  -121.5310   242.0233 C5            1 RES     
    8446 C5        -203.3110  -123.0599   242.1375 C5            1 RES     
    8447 C5        -203.7556  -123.7901   240.8622 C5            1 RES     
    8448 C5        -203.7042  -125.3292   241.0127 C5            1 RES     
    8449 C5        -202.2878  -125.9643   240.8522 C5            1 RES     
    8450 C5        -201.7193  -126.7284   242.0876 C5            1 RES     
    8451 C5        -202.6280  -127.9164   242.5186 C5            1 RES     
    8452 C5        -202.4461  -128.2895   244.0017 C5            1 RES     
    8453 C5        -203.6652  -129.0668   244.5428 C5            1 RES     
    8454 C5        -203.6089  -129.1834   246.0767 C5            1 RES     
    8455 C5        -204.9275  -129.6770   246.6991 C5            1 RES     
    8456 C5        -205.2921  -131.1069   246.3156 C5            1 RES     
    8457 C5        -200.2453  -127.1305   241.7559 C5            1 RES     
    8458 C0        -199.1500  -127.6468   242.7667 C0            1 RES     
    8459 C5        -198.0150  -128.2799   241.8502 C5            1 RES     
    8460 C5        -198.0196  -129.8441   241.7895 C5            1 RES     
    8461 C5        -197.2261  -130.5200   242.9560 C5            1 RES     
    8462 C5        -195.6850  -130.4446   242.8463 C5            1 RES     
    8463 C5        -194.9348  -130.9524   244.0911 C5            1 RES     
    8464 C5        -194.9817  -132.4756   244.3175 C5            1 RES     
    8465 C5        -194.3288  -133.3229   243.2040 C5            1 RES     
    8466 C5        -192.8443  -133.0103   242.9886 C5            1 RES     
    8467 C5        -197.6419  -130.4194   240.3839 C5            1 RES     
    8468 C5        -196.4185  -129.8026   239.6578 C5            1 RES     
    8469 C5        -196.0072  -130.5822   238.3883 C5            1 RES     
    8470 C5        -197.1092  -130.6685   237.3153 C5            1 RES     
    8471 C5        -196.6746  -131.4410   236.0534 C5            1 RES     
    8472 C5        -195.5744  -130.7255   235.2456 C5            1 RES     
    8473 C5        -195.1394  -131.4976   233.9870 C5            1 RES     
    8474 C5        -196.2509  -131.6595   232.9489 C5            1 RES     
    8475 H6        -204.8428  -119.0445   241.8954 H6            1 RES     
    8476 H6        -204.5830  -117.6607   243.0058 H6            1 RES     
    8477 H6        -205.4068  -119.1446   243.6156 H6            1 RES     
    8478 H6        -202.4603  -118.9349   242.6856 H6            1 RES     
    8479 H6        -203.0313  -118.9616   244.3924 H6            1 RES     
    8480 H6        -202.1845  -121.1619   243.7600 H6            1 RES     
    8481 H6        -203.9461  -121.2358   244.1208 H6            1 RES     
    8482 H6        -202.7101  -121.1531   241.2729 H6            1 RES     
    8483 H6        -204.4666  -121.2822   241.6862 H6            1 RES     
    8484 H6        -202.2664  -123.3295   242.4031 H6            1 RES     
    8485 H6        -204.0004  -123.3875   242.9401 H6            1 RES     
    8486 H6        -204.8190  -123.5079   240.6955 H6            1 RES     
    8487 H6        -203.1747  -123.4664   239.9719 H6            1 RES     
    8488 H6        -204.2123  -125.6002   241.9602 H6            1 RES     
    8489 H6        -204.3228  -125.7517   240.1926 H6            1 RES     
    8490 H6        -201.5858  -125.1393   240.5955 H6            1 RES     
    8491 H6        -202.2913  -126.6437   239.9724 H6            1 RES     
    8492 H6        -201.7759  -125.9873   242.8531 H6            1 RES     
    8493 H6        -203.6745  -127.5750   242.4412 H6            1 RES     
    8494 H6        -202.5449  -128.7923   241.8393 H6            1 RES     
    8495 H6        -201.4911  -128.8304   244.1710 H6            1 RES     
    8496 H6        -202.4203  -127.3403   244.5769 H6            1 RES     
    8497 H6        -203.7440  -130.0637   244.0587 H6            1 RES     
    8498 H6        -204.5805  -128.4828   244.2990 H6            1 RES     
    8499 H6        -202.7595  -129.8294   246.3840 H6            1 RES     
    8500 H6        -203.4397  -128.1660   246.4956 H6            1 RES     
    8501 H6        -205.7564  -128.9951   246.4047 H6            1 RES     
    8502 H6        -204.8283  -129.6311   247.8054 H6            1 RES     
    8503 H6        -204.4904  -131.8043   246.6366 H6            1 RES     
    8504 H6        -205.4524  -131.1975   245.2220 H6            1 RES     
    8505 H6        -206.2363  -131.3902   246.8286 H6            1 RES     
    8506 H6        -199.7583  -126.2562   241.2692 H6            1 RES     
    8507 H6        -200.3716  -127.9113   240.9699 H6            1 RES     
    8508 H6        -198.1612  -127.9000   240.8172 H6            1 RES     
    8509 H6        -197.0025  -127.9046   242.0539 H6            1 RES     
    8510 H6        -199.0780  -130.1616   241.9333 H6            1 RES     
    8511 H6        -197.5600  -130.0569   243.9097 H6            1 RES     
    8512 H6        -197.4991  -131.5963   242.9938 H6            1 RES     
    8513 H6        -195.3222  -131.0151   241.9738 H6            1 RES     
    8514 H6        -195.3928  -129.3944   242.7004 H6            1 RES     
    8515 H6        -193.8705  -130.6473   244.0089 H6            1 RES     
    8516 H6        -195.3417  -130.4430   244.9879 H6            1 RES     
    8517 H6        -196.0356  -132.7982   244.4466 H6            1 RES     
    8518 H6        -194.4466  -132.6927   245.2682 H6            1 RES     
    8519 H6        -194.8725  -133.1980   242.2453 H6            1 RES     
    8520 H6        -194.4123  -134.3916   243.4974 H6            1 RES     
    8521 H6        -192.2761  -133.1490   243.9330 H6            1 RES     
    8522 H6        -192.4280  -133.6976   242.2221 H6            1 RES     
    8523 H6        -192.7003  -131.9737   242.6209 H6            1 RES     
    8524 H6        -198.5103  -130.2394   239.7154 H6            1 RES     
    8525 H6        -197.5248  -131.5207   240.4823 H6            1 RES     
    8526 H6        -195.5249  -129.7778   240.2977 H6            1 RES     
    8527 H6        -196.6357  -128.7514   239.3816 H6            1 RES     
    8528 H6        -195.1207  -130.0630   237.9693 H6            1 RES     
    8529 H6        -195.7004  -131.6115   238.6779 H6            1 RES     
    8530 H6        -197.4452  -129.6488   237.0279 H6            1 RES     
    8531 H6        -197.9748  -131.2164   237.7426 H6            1 RES     
    8532 H6        -196.3342  -132.4603   236.3403 H6            1 RES     
    8533 H6        -197.5753  -131.5430   235.4133 H6            1 RES     
    8534 H6        -194.6693  -130.6105   235.8756 H6            1 RES     
    8535 H6        -195.9271  -129.7129   234.9511 H6            1 RES     
    8536 H6        -194.3097  -130.9323   233.5089 H6            1 RES     
    8537 H6        -194.7531  -132.4996   234.2738 H6            1 RES     
    8538 H6        -197.0831  -132.2769   233.3427 H6            1 RES     
    8539 H6        -195.8435  -132.1739   232.0529 H6            1 RES     
    8540 H6        -196.6390  -130.6658   232.6407 H6            1 RES     
    8541 C0        -208.5274  -119.5301   246.5567 C0            1 RES     
    8542 C0        -209.1006  -119.1506   247.9225 C0            1 RES     
    8543 C0        -208.6837  -120.0034   248.8890 C0            1 RES     
    8544 S1        -209.2337  -119.5957   250.4164 S1            1 RES     
    8545 C0        -210.0685  -118.2294   249.8348 C0            1 RES     
    8546 C0        -209.8472  -118.1005   248.4530 C0            1 RES     
    8547 C0        -207.7430  -120.9181   248.3403 C0            1 RES     
    8548 C0        -207.5881  -120.6340   247.0668 C0            1 RES     
    8549 C0        -206.4534  -121.3368   246.4974 C0            1 RES     
    8550 C0        -205.8517  -122.1440   247.4510 C0            1 RES     
    8551 S1        -206.6404  -122.1114   249.0737 S1            1 RES     
    8552 H2        -210.1757  -117.2462   247.9004 H2            1 RES     
    8553 H2        -206.0294  -121.1564   245.5247 H2            1 RES     
    8554 N3        -212.6337  -115.6121   250.7061 N3            1 RES     
    8555 C0        -211.8531  -116.4833   250.0055 C0            1 RES     
    8556 C0        -210.8849  -117.2847   250.6435 C0            1 RES     
    8557 C0        -210.7700  -117.1533   252.0373 C0            1 RES     
    8558 N3        -209.8879  -117.8465   252.8058 N3            1 RES     
    8559 S1        -210.1919  -117.2564   254.3204 S1            1 RES     
    8560 N3        -211.3974  -116.1529   254.0822 N3            1 RES     
    8561 C0        -211.5893  -116.2298   252.7401 C0            1 RES     
    8562 C0        -212.5230  -115.4638   252.0546 C0            1 RES     
    8563 H4        -212.0127  -116.5743   248.9456 H4            1 RES     
    8564 C5        -211.6965  -110.4991   248.9699 C5            1 RES     
    8565 C5        -210.5545  -111.5158   248.9313 C5            1 RES     
    8566 C5        -211.0094  -112.9449   248.5858 C5            1 RES     
    8567 C5        -211.6525  -113.0820   247.1917 C5            1 RES     
    8568 C5        -212.0251  -114.5487   246.9139 C5            1 RES     
    8569 C5        -212.8610  -114.7178   245.6373 C5            1 RES     
    8570 C5        -213.3028  -116.1830   245.4086 C5            1 RES     
    8571 C5        -212.2148  -117.1147   244.7894 C5            1 RES     
    8572 C5        -211.7649  -118.3344   245.6514 C5            1 RES     
    8573 C5        -212.9465  -119.2908   245.9863 C5            1 RES     
    8574 C5        -212.6926  -120.1169   247.2611 C5            1 RES     
    8575 C5        -214.0119  -120.6429   247.8660 C5            1 RES     
    8576 C5        -213.7831  -121.2142   249.2770 C5            1 RES     
    8577 C5        -215.0896  -121.4766   250.0474 C5            1 RES     
    8578 C5        -215.9581  -122.5687   249.4328 C5            1 RES     
    8579 C5        -210.5698  -119.0193   244.9117 C5            1 RES     
    8580 C0        -209.5777  -120.0950   245.5005 C0            1 RES     
    8581 C5        -208.8576  -120.7245   244.2301 C5            1 RES     
    8582 C5        -209.3895  -122.1351   243.8084 C5            1 RES     
    8583 C5        -208.7101  -123.3173   244.5751 C5            1 RES     
    8584 C5        -207.2628  -123.6497   244.1418 C5            1 RES     
    8585 C5        -206.5571  -124.6890   245.0317 C5            1 RES     
    8586 C5        -207.0746  -126.1341   244.9006 C5            1 RES     
    8587 C5        -206.9029  -126.7663   243.5024 C5            1 RES     
    8588 C5        -205.4446  -126.8350   243.0373 C5            1 RES     
    8589 C5        -209.4252  -122.3558   242.2594 C5            1 RES     
    8590 C5        -208.1811  -121.9236   241.4410 C5            1 RES     
    8591 C5        -208.2341  -122.3803   239.9655 C5            1 RES     
    8592 C5        -209.4412  -121.8353   239.1786 C5            1 RES     
    8593 C5        -209.4691  -122.2942   237.7067 C5            1 RES     
    8594 C5        -208.3186  -121.7133   236.8619 C5            1 RES     
    8595 C5        -208.3455  -122.1729   235.3930 C5            1 RES     
    8596 C5        -209.5817  -121.7046   234.6238 C5            1 RES     
    8597 H6        -212.1553  -110.3772   247.9678 H6            1 RES     
    8598 H6        -211.2979  -109.5104   249.2828 H6            1 RES     
    8599 H6        -212.4735  -110.8135   249.6986 H6            1 RES     
    8600 H6        -209.7857  -111.1783   248.2042 H6            1 RES     
    8601 H6        -210.0879  -111.5415   249.9410 H6            1 RES     
    8602 H6        -210.1169  -113.6055   248.6382 H6            1 RES     
    8603 H6        -211.7341  -113.2833   249.3590 H6            1 RES     
    8604 H6        -210.9529  -112.7219   246.4061 H6            1 RES     
    8605 H6        -212.5764  -112.4669   247.1626 H6            1 RES     
    8606 H6        -211.1029  -115.1664   246.8669 H6            1 RES     
    8607 H6        -212.6644  -114.8890   247.7520 H6            1 RES     
    8608 H6        -213.7826  -114.1120   245.7851 H6            1 RES     
    8609 H6        -212.3365  -114.3248   244.7399 H6            1 RES     
    8610 H6        -213.7338  -116.5650   246.3560 H6            1 RES     
    8611 H6        -214.1350  -116.1552   244.6735 H6            1 RES     
    8612 H6        -211.3221  -116.4830   244.5811 H6            1 RES     
    8613 H6        -212.5669  -117.4772   243.7993 H6            1 RES     
    8614 H6        -211.4644  -117.8652   246.5614 H6            1 RES     
    8615 H6        -213.8202  -118.6618   246.2286 H6            1 RES     
    8616 H6        -213.2549  -119.9159   245.1205 H6            1 RES     
    8617 H6        -211.9575  -120.9294   247.0798 H6            1 RES     
    8618 H6        -212.2729  -119.4250   248.0210 H6            1 RES     
    8619 H6        -214.4842  -121.3901   247.1930 H6            1 RES     
    8620 H6        -214.7061  -119.7804   247.9780 H6            1 RES     
    8621 H6        -213.1620  -122.1334   249.2254 H6            1 RES     
    8622 H6        -213.2288  -120.4545   249.8727 H6            1 RES     
    8623 H6        -215.6779  -120.5342   250.1150 H6            1 RES     
    8624 H6        -214.8268  -121.7862   251.0822 H6            1 RES     
    8625 H6        -215.3968  -123.5254   249.3930 H6            1 RES     
    8626 H6        -216.2911  -122.2864   248.4134 H6            1 RES     
    8627 H6        -216.8610  -122.7123   250.0647 H6            1 RES     
    8628 H6        -209.8936  -118.2148   244.5459 H6            1 RES     
    8629 H6        -211.0570  -119.4674   244.0143 H6            1 RES     
    8630 H6        -209.0127  -120.0340   243.3746 H6            1 RES     
    8631 H6        -207.7600  -120.7259   244.2823 H6            1 RES     
    8632 H6        -210.4621  -122.1697   244.1086 H6            1 RES     
    8633 H6        -208.7342  -123.0792   245.6606 H6            1 RES     
    8634 H6        -209.3167  -124.2353   244.4210 H6            1 RES     
    8635 H6        -207.2361  -124.0178   243.1016 H6            1 RES     
    8636 H6        -206.6622  -122.7293   244.1833 H6            1 RES     
    8637 H6        -205.4745  -124.6853   244.7855 H6            1 RES     
    8638 H6        -206.6418  -124.3714   246.0905 H6            1 RES     
    8639 H6        -208.1467  -126.1705   245.1848 H6            1 RES     
    8640 H6        -206.5143  -126.7613   245.6287 H6            1 RES     
    8641 H6        -207.5031  -126.2187   242.7473 H6            1 RES     
    8642 H6        -207.2943  -127.8054   243.5492 H6            1 RES     
    8643 H6        -204.8282  -127.3979   243.7702 H6            1 RES     
    8644 H6        -205.3918  -127.3559   242.0580 H6            1 RES     
    8645 H6        -205.0178  -125.8205   242.8992 H6            1 RES     
    8646 H6        -210.2693  -121.7514   241.8647 H6            1 RES     
    8647 H6        -209.6678  -123.4240   242.0688 H6            1 RES     
    8648 H6        -207.2496  -122.3394   241.8508 H6            1 RES     
    8649 H6        -208.0735  -120.8209   241.4742 H6            1 RES     
    8650 H6        -207.2937  -122.0324   239.4907 H6            1 RES     
    8651 H6        -208.2490  -123.4920   239.9299 H6            1 RES     
    8652 H6        -209.4566  -120.7247   239.2206 H6            1 RES     
    8653 H6        -210.3707  -122.2176   239.6499 H6            1 RES     
    8654 H6        -209.4497  -123.4055   237.6634 H6            1 RES     
    8655 H6        -210.4329  -121.9468   237.2803 H6            1 RES     
    8656 H6        -207.3478  -122.0470   237.2808 H6            1 RES     
    8657 H6        -208.3528  -120.6025   236.8993 H6            1 RES     
    8658 H6        -207.4510  -121.7498   234.8860 H6            1 RES     
    8659 H6        -208.2776  -123.2813   235.3434 H6            1 RES     
    8660 H6        -210.5077  -122.1501   235.0395 H6            1 RES     
    8661 H6        -209.4980  -122.0271   233.5642 H6            1 RES     
    8662 H6        -209.6571  -120.5971   234.6517 H6            1 RES     
    8663 C0        -215.1000  -111.1490   253.0935 C0            1 RES     
    8664 C0        -215.3172  -111.0406   254.6032 C0            1 RES     
    8665 C0        -215.0759  -112.2201   255.2243 C0            1 RES     
    8666 S1        -215.2395  -112.1398   256.8882 S1            1 RES     
    8667 C0        -215.6463  -110.4861   256.8452 C0            1 RES     
    8668 C0        -215.5908  -110.0262   255.5184 C0            1 RES     
    8669 C0        -214.5789  -113.1600   254.2798 C0            1 RES     
    8670 C0        -214.5187  -112.5712   253.1066 C0            1 RES     
    8671 C0        -213.7733  -113.3661   252.1483 C0            1 RES     
    8672 C0        -213.3462  -114.5520   252.7262 C0            1 RES     
    8673 S1        -213.8436  -114.7753   254.4464 S1            1 RES     
    8674 H2        -215.6912  -108.9913   255.2692 H2            1 RES     
    8675 H2        -213.4543  -113.0357   251.1748 H2            1 RES     
    8676 N3        -217.0484  -107.6277   258.8585 N3            1 RES     
    8677 C0        -216.7076  -108.4384   257.8164 C0            1 RES     
    8678 C0        -215.9809  -109.6298   258.0146 C0            1 RES     
    8679 C0        -215.6347  -109.9499   259.3379 C0            1 RES     
    8680 N3        -214.9342  -111.0564   259.7041 N3            1 RES     
    8681 S1        -214.8096  -110.8748   261.3431 S1            1 RES     
    8682 N3        -215.6012  -109.4575   261.6471 N3            1 RES     
    8683 C0        -215.9940  -109.0811   260.4029 C0            1 RES     
    8684 C0        -216.7068  -107.9178   260.1437 C0            1 RES     
    8685 H4        -217.0353  -108.1665   256.8286 H4            1 RES     
    8686 C5        -214.7205  -102.7101   258.1992 C5            1 RES     
    8687 C5        -213.9981  -103.9492   257.6680 C5            1 RES     
    8688 C5        -214.9452  -105.0263   257.1099 C5            1 RES     
    8689 C5        -215.7861  -104.5628   255.9041 C5            1 RES     
    8690 C5        -216.6594  -105.7172   255.3827 C5            1 RES     
    8691 C5        -217.6743  -105.2631   254.3240 C5            1 RES     
    8692 C5        -218.6047  -106.4111   253.8650 C5            1 RES     
    8693 C5        -217.9859  -107.3873   252.8167 C5            1 RES     
    8694 C5        -217.8501  -108.8809   253.2458 C5            1 RES     
    8695 C5        -219.2228  -109.5207   253.6054 C5            1 RES     
    8696 C5        -219.0815  -110.7202   254.5610 C5            1 RES     
    8697 C5        -220.4020  -111.0069   255.3075 C5            1 RES     
    8698 C5        -220.1803  -112.0063   256.4572 C5            1 RES     
    8699 C5        -221.3782  -112.1042   257.4190 C5            1 RES     
    8700 C5        -222.6369  -112.6783   256.7782 C5            1 RES     
    8701 C5        -217.0664  -109.6265   252.1169 C5            1 RES     
    8702 C0        -216.4154  -111.0608   252.1991 C0            1 RES     
    8703 C5        -216.1306  -111.4669   250.6882 C5            1 RES     
    8704 C5        -217.1542  -112.4831   250.0797 C5            1 RES     
    8705 C5        -216.8053  -113.9790   250.3758 C5            1 RES     
    8706 C5        -215.6263  -114.5629   249.5623 C5            1 RES     
    8707 C5        -215.1881  -115.9716   250.0023 C5            1 RES     
    8708 C5        -216.1689  -117.1086   249.6574 C5            1 RES     
    8709 C5        -216.4146  -117.3254   248.1486 C5            1 RES     
    8710 C5        -215.1422  -117.6622   247.3641 C5            1 RES     
    8711 C5        -217.4779  -112.2215   248.5711 C5            1 RES     
    8712 C5        -216.2886  -111.9368   247.6176 C5            1 RES     
    8713 C5        -216.6966  -111.9076   246.1272 C5            1 RES     
    8714 C5        -217.7520  -110.8398   245.7821 C5            1 RES     
    8715 C5        -218.1367  -110.8206   244.2890 C5            1 RES     
    8716 C5        -216.9891  -110.3660   243.3663 C5            1 RES     
    8717 C5        -217.3728  -110.3487   241.8757 C5            1 RES     
    8718 C5        -218.4783  -109.3479   241.5359 C5            1 RES     
    8719 H6        -215.2486  -102.1765   257.3832 H6            1 RES     
    8720 H6        -213.9767  -102.0102   258.6363 H6            1 RES     
    8721 H6        -215.4475  -102.9923   258.9901 H6            1 RES     
    8722 H6        -213.2708  -103.6441   256.8859 H6            1 RES     
    8723 H6        -213.4298  -104.3994   258.5120 H6            1 RES     
    8724 H6        -214.3245  -105.8964   256.8041 H6            1 RES     
    8725 H6        -215.6251  -105.3581   257.9255 H6            1 RES     
    8726 H6        -215.1241  -104.2005   255.0875 H6            1 RES     
    8727 H6        -216.4478  -103.7323   256.2283 H6            1 RES     
    8728 H6        -216.0108  -106.5274   254.9862 H6            1 RES     
    8729 H6        -217.2512  -106.0937   256.2400 H6            1 RES     
    8730 H6        -218.3122  -104.4936   254.8128 H6            1 RES     
    8731 H6        -217.1804  -104.7888   253.4488 H6            1 RES     
    8732 H6        -219.0008  -106.9163   254.7690 H6            1 RES     
    8733 H6        -219.4749  -105.9366   253.3637 H6            1 RES     
    8734 H6        -216.9727  -107.0001   252.5660 H6            1 RES     
    8735 H6        -218.5735  -107.3299   251.8748 H6            1 RES     
    8736 H6        -217.2865  -108.8028   254.1484 H6            1 RES     
    8737 H6        -219.7951  -108.7711   254.1782 H6            1 RES     
    8738 H6        -219.8394  -109.7519   252.7099 H6            1 RES     
    8739 H6        -218.6908  -111.6164   254.0342 H6            1 RES     
    8740 H6        -218.3538  -110.4282   255.3469 H6            1 RES     
    8741 H6        -221.1849  -111.3601   254.6028 H6            1 RES     
    8742 H6        -220.7476  -110.0562   255.7713 H6            1 RES     
    8743 H6        -219.9132  -113.0059   256.0538 H6            1 RES     
    8744 H6        -219.3275  -111.6421   257.0733 H6            1 RES     
    8745 H6        -221.6046  -111.0972   257.8355 H6            1 RES     
    8746 H6        -221.0906  -112.7639   258.2663 H6            1 RES     
    8747 H6        -222.4364  -113.6989   256.3907 H6            1 RES     
    8748 H6        -222.9967  -112.0283   255.9549 H6            1 RES     
    8749 H6        -223.4383  -112.7405   257.5457 H6            1 RES     
    8750 H6        -216.2199  -108.9742   251.8064 H6            1 RES     
    8751 H6        -217.7954  -109.6364   251.2732 H6            1 RES     
    8752 H6        -216.1662  -110.5418   250.0753 H6            1 RES     
    8753 H6        -215.1000  -111.7921   250.4900 H6            1 RES     
    8754 H6        -218.1241  -112.3010   250.5972 H6            1 RES     
    8755 H6        -216.5965  -114.0723   251.4636 H6            1 RES     
    8756 H6        -217.6974  -114.6024   250.1523 H6            1 RES     
    8757 H6        -215.8694  -114.6025   248.4864 H6            1 RES     
    8758 H6        -214.7546  -113.9028   249.6812 H6            1 RES     
    8759 H6        -214.2115  -116.2007   249.5264 H6            1 RES     
    8760 H6        -215.0133  -115.9675   251.0971 H6            1 RES     
    8761 H6        -217.1412  -116.9235   250.1592 H6            1 RES     
    8762 H6        -215.7522  -118.0524   250.0733 H6            1 RES     
    8763 H6        -216.8985  -116.4352   247.6973 H6            1 RES     
    8764 H6        -217.1180  -118.1788   248.0382 H6            1 RES     
    8765 H6        -214.6512  -118.5645   247.7870 H6            1 RES     
    8766 H6        -215.4031  -117.8666   246.3041 H6            1 RES     
    8767 H6        -214.4267  -116.8146   247.3742 H6            1 RES     
    8768 H6        -218.1201  -111.3163   248.5290 H6            1 RES     
    8769 H6        -218.0854  -113.0739   248.1959 H6            1 RES     
    8770 H6        -215.5003  -112.6987   247.6982 H6            1 RES     
    8771 H6        -215.8177  -110.9690   247.8823 H6            1 RES     
    8772 H6        -215.7704  -111.7152   245.5475 H6            1 RES     
    8773 H6        -217.0844  -112.9090   245.8373 H6            1 RES     
    8774 H6        -217.3918  -109.8327   246.0847 H6            1 RES     
    8775 H6        -218.6798  -111.0658   246.3480 H6            1 RES     
    8776 H6        -218.4935  -111.8290   243.9841 H6            1 RES     
    8777 H6        -218.9803  -110.1073   244.1839 H6            1 RES     
    8778 H6        -216.1356  -111.0666   243.4660 H6            1 RES     
    8779 H6        -216.6471  -109.3521   243.6688 H6            1 RES     
    8780 H6        -216.4689  -110.0651   241.2934 H6            1 RES     
    8781 H6        -217.6842  -111.3662   241.5545 H6            1 RES     
    8782 H6        -219.4317  -109.6164   242.0337 H6            1 RES     
    8783 H6        -218.6558  -109.3562   240.4395 H6            1 RES     
    8784 H6        -218.1771  -108.3227   241.8380 H6            1 RES     
    8785 C0        -217.5330  -103.5538   262.7146 C0            1 RES     
    8786 C0        -217.4880  -103.8354   264.2168 C0            1 RES     
    8787 C0        -217.5673  -105.1630   264.4745 C0            1 RES     
    8788 S1        -217.4599  -105.5305   266.1040 S1            1 RES     
    8789 C0        -217.2966  -103.8922   266.5412 C0            1 RES     
    8790 C0        -217.2782  -103.0992   265.3811 C0            1 RES     
    8791 C0        -217.5480  -105.8854   263.2496 C0            1 RES     
    8792 C0        -217.4609  -105.0209   262.2639 C0            1 RES     
    8793 C0        -217.1638  -105.6765   261.0039 C0            1 RES     
    8794 C0        -217.0779  -107.0496   261.1774 C0            1 RES     
    8795 S1        -217.3749  -107.6172   262.8643 S1            1 RES     
    8796 H2        -217.0633  -102.0522   265.4097 H2            1 RES     
    8797 H2        -216.8930  -105.1794   260.0883 H2            1 RES     
    8798 N3        -217.3735  -101.4746   269.4289 N3            1 RES     
    8799 C0        -217.4708  -102.0065   268.1771 C0            1 RES     
    8800 C0        -217.1606  -103.3576   267.9227 C0            1 RES     
    8801 C0        -216.7583  -104.1348   269.0216 C0            1 RES     
    8802 N3        -216.4208  -105.4502   268.9518 N3            1 RES     
    8803 S1        -216.0144  -105.7989   270.5165 S1            1 RES     
    8804 N3        -216.2399  -104.3699   271.3133 N3            1 RES     
    8805 C0        -216.6558  -103.5514   270.3128 C0            1 RES     
    8806 C0        -216.9710  -102.2119   270.4999 C0            1 RES     
    8807 H4        -217.8247  -101.3767   267.3801 H4            1 RES     
    8808 C5        -213.6623   -97.4419   269.4295 C5            1 RES     
    8809 C5        -213.4741   -98.6220   268.4749 C5            1 RES     
    8810 C5        -214.7933   -99.1768   267.9088 C5            1 RES     
    8811 C5        -215.5930   -98.1639   267.0659 C5            1 RES     
    8812 C5        -216.8639   -98.8208   266.4999 C5            1 RES     
    8813 C5        -217.8084   -97.8106   265.8331 C5            1 RES     
    8814 C5        -219.1217   -98.4639   265.3404 C5            1 RES     
    8815 C5        -219.0154   -99.2233   263.9814 C5            1 RES     
    8816 C5        -219.3243  -100.7520   264.0079 C5            1 RES     
    8817 C5        -220.7668  -101.0561   264.5078 C5            1 RES     
    8818 C5        -220.8990  -102.4717   265.0997 C5            1 RES     
    8819 C5        -222.1213  -102.5809   266.0364 C5            1 RES     
    8820 C5        -222.0850  -103.8931   266.8405 C5            1 RES     
    8821 C5        -223.1001  -103.9271   267.9972 C5            1 RES     
    8822 C5        -224.5547  -103.9103   267.5406 C5            1 RES     
    8823 C5        -218.9989  -101.3235   262.5894 C5            1 RES     
    8824 C0        -218.8562  -102.8416   262.1855 C0            1 RES     
    8825 C5        -218.9372  -102.8507   260.5974 C5            1 RES     
    8826 C5        -220.3146  -103.3135   260.0151 C5            1 RES     
    8827 C5        -220.4441  -104.8655   259.8671 C5            1 RES     
    8828 C5        -219.6521  -105.4926   258.6957 C5            1 RES     
    8829 C5        -219.6492  -107.0321   258.6842 C5            1 RES     
    8830 C5        -220.9898  -107.6944   258.3134 C5            1 RES     
    8831 C5        -221.5025  -107.3820   256.8908 C5            1 RES     
    8832 C5        -220.5374  -107.8180   255.7835 C5            1 RES     
    8833 C5        -220.7412  -102.5419   258.7221 C5            1 RES     
    8834 C5        -219.6710  -102.3372   257.6188 C5            1 RES     
    8835 C5        -220.2508  -101.7596   256.3078 C5            1 RES     
    8836 C5        -220.9294  -100.3859   256.4685 C5            1 RES     
    8837 C5        -221.4912   -99.8232   255.1472 C5            1 RES     
    8838 C5        -220.3992   -99.4604   254.1222 C5            1 RES     
    8839 C5        -220.9603   -98.9005   252.8027 C5            1 RES     
    8840 C5        -221.7071   -97.5756   252.9640 C5            1 RES     
    8841 H6        -214.0922   -96.5669   268.9012 H6            1 RES     
    8842 H6        -212.6749   -97.1393   269.8388 H6            1 RES     
    8843 H6        -214.3232   -97.7268   270.2755 H6            1 RES     
    8844 H6        -212.8041   -98.3188   267.6425 H6            1 RES     
    8845 H6        -212.9751   -99.4403   269.0400 H6            1 RES     
    8846 H6        -214.5460  -100.0570   267.2765 H6            1 RES     
    8847 H6        -215.4233   -99.5275   268.7559 H6            1 RES     
    8848 H6        -214.9697   -97.7799   266.2290 H6            1 RES     
    8849 H6        -215.8892   -97.3137   267.7156 H6            1 RES     
    8850 H6        -216.5833   -99.6276   265.7895 H6            1 RES     
    8851 H6        -217.4208   -99.2494   267.3561 H6            1 RES     
    8852 H6        -218.0795   -97.0710   266.6189 H6            1 RES     
    8853 H6        -217.3129   -97.2599   265.0048 H6            1 RES     
    8854 H6        -219.5321   -99.0787   266.1667 H6            1 RES     
    8855 H6        -219.8462   -97.6387   265.1730 H6            1 RES     
    8856 H6        -217.9769   -99.0809   263.6065 H6            1 RES     
    8857 H6        -219.6765   -98.7300   263.2362 H6            1 RES     
    8858 H6        -218.6461  -101.1033   264.7529 H6            1 RES     
    8859 H6        -220.9715  -100.3777   265.3537 H6            1 RES     
    8860 H6        -221.5442  -100.8320   263.7457 H6            1 RES     
    8861 H6        -220.9059  -103.2465   264.3041 H6            1 RES     
    8862 H6        -220.0130  -102.6394   265.7473 H6            1 RES     
    8863 H6        -223.0677  -102.4773   265.4636 H6            1 RES     
    8864 H6        -222.0631  -101.7505   266.7750 H6            1 RES     
    8865 H6        -222.2242  -104.7637   266.1653 H6            1 RES     
    8866 H6        -221.0823  -103.9803   267.3162 H6            1 RES     
    8867 H6        -222.9187  -103.0651   268.6774 H6            1 RES     
    8868 H6        -222.9320  -104.8589   268.5798 H6            1 RES     
    8869 H6        -224.7607  -104.7861   266.8905 H6            1 RES     
    8870 H6        -224.7900  -102.9742   266.9947 H6            1 RES     
    8871 H6        -225.2152  -103.9665   268.4325 H6            1 RES     
    8872 H6        -218.0363  -100.8746   262.2574 H6            1 RES     
    8873 H6        -219.8005  -100.8807   261.9532 H6            1 RES     
    8874 H6        -218.7492  -101.8158   260.2417 H6            1 RES     
    8875 H6        -218.1114  -103.3797   260.1018 H6            1 RES     
    8876 H6        -221.0864  -103.0258   260.7656 H6            1 RES     
    8877 H6        -220.1278  -105.3277   260.8273 H6            1 RES     
    8878 H6        -221.5145  -105.1189   259.7111 H6            1 RES     
    8879 H6        -220.0429  -105.1456   257.7235 H6            1 RES     
    8880 H6        -218.6032  -105.1691   258.7660 H6            1 RES     
    8881 H6        -218.8810  -107.3768   257.9605 H6            1 RES     
    8882 H6        -219.3313  -107.3978   259.6813 H6            1 RES     
    8883 H6        -221.7650  -107.3987   259.0502 H6            1 RES     
    8884 H6        -220.8561  -108.7959   258.3925 H6            1 RES     
    8885 H6        -221.7218  -106.3003   256.7809 H6            1 RES     
    8886 H6        -222.4575  -107.9318   256.7457 H6            1 RES     
    8887 H6        -220.3196  -108.9044   255.8622 H6            1 RES     
    8888 H6        -220.9973  -107.6213   254.7920 H6            1 RES     
    8889 H6        -219.5872  -107.2475   255.8299 H6            1 RES     
    8890 H6        -221.0457  -101.5217   259.0383 H6            1 RES     
    8891 H6        -221.6435  -103.0403   258.3050 H6            1 RES     
    8892 H6        -219.1772  -103.2788   257.3395 H6            1 RES     
    8893 H6        -218.8734  -101.6625   257.9891 H6            1 RES     
    8894 H6        -219.4043  -101.6745   255.5957 H6            1 RES     
    8895 H6        -220.9856  -102.4809   255.8870 H6            1 RES     
    8896 H6        -220.2167   -99.6553   256.9087 H6            1 RES     
    8897 H6        -221.7906  -100.4971   257.1599 H6            1 RES     
    8898 H6        -222.2015  -100.5554   254.7037 H6            1 RES     
    8899 H6        -222.0561   -98.9034   255.4044 H6            1 RES     
    8900 H6        -219.8215  -100.3699   253.8605 H6            1 RES     
    8901 H6        -219.7012   -98.7185   254.5681 H6            1 RES     
    8902 H6        -220.1047   -98.7251   252.1145 H6            1 RES     
    8903 H6        -221.6336   -99.6490   252.3314 H6            1 RES     
    8904 H6        -222.6158   -97.6986   253.5869 H6            1 RES     
    8905 H6        -222.0292   -97.2124   251.9650 H6            1 RES     
    8906 H6        -221.0435   -96.8117   253.4214 H6            1 RES     
    8907 C0        -215.9328   -98.7434   274.1371 C0            1 RES     
    8908 C0        -215.7737   -99.4531   275.4821 C0            1 RES     
    8909 C0        -216.2521  -100.7195   275.4336 C0            1 RES     
    8910 S1        -216.0455  -101.5624   276.8649 S1            1 RES     
    8911 C0        -215.2881  -100.2389   277.6243 C0            1 RES     
    8912 C0        -215.1704   -99.1799   276.7081 C0            1 RES     
    8913 C0        -216.6457  -101.0267   274.1020 C0            1 RES     
    8914 C0        -216.4157   -99.9727   273.3518 C0            1 RES     
    8915 C0        -216.5328  -100.2867   271.9399 C0            1 RES     
    8916 C0        -216.8841  -101.6165   271.7640 C0            1 RES     
    8917 S1        -217.1130  -102.5455   273.2940 S1            1 RES     
    8918 H2        -214.6184   -98.2918   276.9312 H2            1 RES     
    8919 H2        -216.2436   -99.6406   271.1291 H2            1 RES     
    8920 N3        -214.1526   -98.8529   280.9377 N3            1 RES     
    8921 C0        -214.5953   -98.9453   279.6514 C0            1 RES     
    8922 C0        -214.7901  -100.1929   279.0253 C0            1 RES     
    8923 C0        -214.5187  -101.3379   279.7926 C0            1 RES     
    8924 N3        -214.6502  -102.6146   279.3433 N3            1 RES     
    8925 S1        -214.1675  -103.5055   280.6503 S1            1 RES     
    8926 N3        -213.7918  -102.3692   281.7886 N3            1 RES     
    8927 C0        -214.0484  -101.2114   281.1271 C0            1 RES     
    8928 C0        -213.8716   -99.9533   281.6879 C0            1 RES     
    8929 H4        -214.8283   -98.0370   279.1243 H4            1 RES     
    8930 C5        -209.3520   -96.2109   281.0441 C5            1 RES     
    8931 C5        -209.7020   -97.0630   279.8231 C5            1 RES     
    8932 C5        -211.1962   -97.0335   279.4553 C5            1 RES     
    8933 C5        -211.7241   -95.6362   279.0747 C5            1 RES     
    8934 C5        -213.2071   -95.7136   278.6722 C5            1 RES     
    8935 C5        -213.8463   -94.3296   278.4901 C5            1 RES     
    8936 C5        -215.3573   -94.4132   278.1674 C5            1 RES     
    8937 C5        -215.7007   -94.7395   276.6806 C5            1 RES     
    8938 C5        -216.4926   -96.0575   276.4182 C5            1 RES     
    8939 C5        -217.8690   -96.0761   277.1450 C5            1 RES     
    8940 C5        -218.3792   -97.5060   277.4041 C5            1 RES     
    8941 C5        -219.4243   -97.5361   278.5399 C5            1 RES     
    8942 C5        -219.7132   -98.9809   278.9859 C5            1 RES     
    8943 C5        -220.5092   -99.0651   280.3007 C5            1 RES     
    8944 C5        -221.9246   -98.5071   280.2004 C5            1 RES     
    8945 C5        -216.5776   -96.2563   274.8697 C5            1 RES     
    8946 C0        -217.0049   -97.5656   274.1010 C0            1 RES     
    8947 C5        -217.3062   -97.0864   272.6149 C5            1 RES     
    8948 C5        -218.8263   -96.9517   272.2663 C5            1 RES     
    8949 C5        -219.4830   -98.2904   271.7930 C5            1 RES     
    8950 C5        -219.1165   -98.7435   270.3602 C5            1 RES     
    8951 C5        -219.6264  -100.1479   269.9891 C5            1 RES     
    8952 C5        -221.1488  -100.2678   269.7856 C5            1 RES     
    8953 C5        -221.7229   -99.4218   268.6285 C5            1 RES     
    8954 C5        -221.1225   -99.7676   267.2619 C5            1 RES     
    8955 C5        -219.1495   -95.7482   271.3196 C5            1 RES     
    8956 C5        -218.2379   -95.5391   270.0827 C5            1 RES     
    8957 C5        -218.7709   -94.4645   269.1082 C5            1 RES     
    8958 C5        -218.9254   -93.0653   269.7339 C5            1 RES     
    8959 C5        -219.4480   -92.0064   268.7421 C5            1 RES     
    8960 C5        -218.4526   -91.6820   267.6112 C5            1 RES     
    8961 C5        -218.9752   -90.6264   266.6203 C5            1 RES     
    8962 C5        -219.2095   -89.2527   267.2505 C5            1 RES     
    8963 H6        -209.5367   -95.1357   280.8456 H6            1 RES     
    8964 H6        -208.2731   -96.3317   281.2795 H6            1 RES     
    8965 H6        -209.9445   -96.5330   281.9266 H6            1 RES     
    8966 H6        -209.0931   -96.7308   278.9557 H6            1 RES     
    8967 H6        -209.4289   -98.1166   280.0542 H6            1 RES     
    8968 H6        -211.3463   -97.7225   278.5959 H6            1 RES     
    8969 H6        -211.7815   -97.4247   280.3166 H6            1 RES     
    8970 H6        -211.1326   -95.2156   278.2323 H6            1 RES     
    8971 H6        -211.6271   -94.9660   279.9546 H6            1 RES     
    8972 H6        -213.3127   -96.3220   277.7486 H6            1 RES     
    8973 H6        -213.7487   -96.1992   279.5074 H6            1 RES     
    8974 H6        -213.7436   -93.8073   279.4673 H6            1 RES     
    8975 H6        -213.3175   -93.7232   277.7237 H6            1 RES     
    8976 H6        -215.8283   -95.1015   278.8978 H6            1 RES     
    8977 H6        -215.7828   -93.4063   278.3650 H6            1 RES     
    8978 H6        -214.7373   -94.7916   276.1253 H6            1 RES     
    8979 H6        -216.2582   -93.8846   276.2399 H6            1 RES     
    8980 H6        -215.8720   -96.7873   276.8881 H6            1 RES     
    8981 H6        -217.7162   -95.6460   278.1497 H6            1 RES     
    8982 H6        -218.6266   -95.4296   276.6516 H6            1 RES     
    8983 H6        -218.7543   -97.9793   276.4721 H6            1 RES     
    8984 H6        -217.5176   -98.0979   277.7779 H6            1 RES     
    8985 H6        -220.3530   -97.0078   278.2355 H6            1 RES     
    8986 H6        -218.9909   -97.0097   279.4193 H6            1 RES     
    8987 H6        -220.2267   -99.5399   278.1752 H6            1 RES     
    8988 H6        -218.7401   -99.4818   279.1896 H6            1 RES     
    8989 H6        -219.9586   -98.5272   281.1045 H6            1 RES     
    8990 H6        -220.5800  -100.1344   280.5963 H6            1 RES     
    8991 H6        -222.4986   -99.0593   279.4273 H6            1 RES     
    8992 H6        -221.9100   -97.4256   279.9556 H6            1 RES     
    8993 H6        -222.4344   -98.6337   281.1798 H6            1 RES     
    8994 H6        -215.5772   -96.0195   274.4437 H6            1 RES     
    8995 H6        -217.2676   -95.4400   274.5519 H6            1 RES     
    8996 H6        -216.8372   -96.0894   272.4778 H6            1 RES     
    8997 H6        -216.7809   -97.6571   271.8366 H6            1 RES     
    8998 H6        -219.3455   -96.6914   273.2173 H6            1 RES     
    8999 H6        -219.2067   -99.0828   272.5221 H6            1 RES     
    9000 H6        -220.5875   -98.1754   271.8275 H6            1 RES     
    9001 H6        -219.5022   -98.0319   269.6096 H6            1 RES     
    9002 H6        -218.0209   -98.7633   270.2659 H6            1 RES     
    9003 H6        -219.1256  -100.4672   269.0510 H6            1 RES     
    9004 H6        -219.3114  -100.8634   270.7752 H6            1 RES     
    9005 H6        -221.6705   -99.9951   270.7263 H6            1 RES     
    9006 H6        -221.3785  -101.3352   269.5731 H6            1 RES     
    9007 H6        -221.5838   -98.3393   268.8266 H6            1 RES     
    9008 H6        -222.8165   -99.6133   268.5779 H6            1 RES     
    9009 H6        -221.2689  -100.8449   267.0335 H6            1 RES     
    9010 H6        -221.6252   -99.1684   266.4735 H6            1 RES     
    9011 H6        -220.0403   -99.5270   267.2249 H6            1 RES     
    9012 H6        -219.0506   -94.8227   271.9256 H6            1 RES     
    9013 H6        -220.2150   -95.8279   271.0119 H6            1 RES     
    9014 H6        -218.1289   -96.4568   269.4874 H6            1 RES     
    9015 H6        -217.2180   -95.2552   270.4109 H6            1 RES     
    9016 H6        -218.0528   -94.4165   268.2638 H6            1 RES     
    9017 H6        -219.7548   -94.7940   268.7072 H6            1 RES     
    9018 H6        -217.9564   -92.7268   270.1604 H6            1 RES     
    9019 H6        -219.6687   -93.1271   270.5559 H6            1 RES     
    9020 H6        -220.4157   -92.3460   268.3115 H6            1 RES     
    9021 H6        -219.6337   -91.0822   269.3274 H6            1 RES     
    9022 H6        -218.2523   -92.5991   267.0212 H6            1 RES     
    9023 H6        -217.4928   -91.3306   268.0490 H6            1 RES     
    9024 H6        -218.2153   -90.5053   265.8176 H6            1 RES     
    9025 H6        -219.9178   -90.9832   266.1514 H6            1 RES     
    9026 H6        -220.0106   -89.2918   268.0158 H6            1 RES     
    9027 H6        -219.5294   -88.5378   266.4630 H6            1 RES     
    9028 H6        -218.2728   -88.8749   267.7121 H6            1 RES     
    9029 C0        -211.2420   -98.1396   285.7044 C0            1 RES     
    9030 C0        -211.1405   -99.2265   286.7751 C0            1 RES     
    9031 C0        -212.0140  -100.2352   286.5413 C0            1 RES     
    9032 S1        -211.9003  -101.4825   287.6517 S1            1 RES     
    9033 C0        -210.6480  -100.7081   288.5085 C0            1 RES     
    9034 C0        -210.3152   -99.5052   287.8626 C0            1 RES     
    9035 C0        -212.6698  -100.0156   285.2986 C0            1 RES     
    9036 C0        -212.2106   -98.8975   284.7834 C0            1 RES     
    9037 C0        -212.6220   -98.7384   283.4009 C0            1 RES     
    9038 C0        -213.4157   -99.8035   283.0031 C0            1 RES     
    9039 S1        -213.7230  -101.0359   284.2849 S1            1 RES     
    9040 H2        -209.4743   -98.9141   288.1568 H2            1 RES     
    9041 H2        -212.2514   -97.9919   282.7197 H2            1 RES     
    9042 N3        -208.6642  -100.7303   291.7106 N3            1 RES     
    9043 C0        -209.2882  -100.3138   290.5719 C0            1 RES     
    9044 C0        -209.9718  -101.2161   289.7322 C0            1 RES     
    9045 C0        -209.9911  -102.5634   290.1295 C0            1 RES     
    9046 N3        -210.6004  -103.5618   289.4360 N3            1 RES     
    9047 S1        -210.2626  -104.8942   290.3554 S1            1 RES     
    9048 N3        -209.3754  -104.2944   291.6129 N3            1 RES     
    9049 C0        -209.3232  -102.9705   291.3154 C0            1 RES     
    9050 C0        -208.6622  -102.0345   292.0999 C0            1 RES     
    9051 H4        -209.2779   -99.2639   290.3380 H4            1 RES     
    9052 C5        -203.2943   -99.6966   291.3468 C5            1 RES     
    9053 C5        -204.0748  -100.0197   290.0717 C5            1 RES     
    9054 C5        -205.5103   -99.4649   290.0673 C5            1 RES     
    9055 C5        -205.5924   -97.9280   290.1525 C5            1 RES     
    9056 C5        -207.0579   -97.4640   290.0878 C5            1 RES     
    9057 C5        -207.2204   -95.9661   290.3828 C5            1 RES     
    9058 C5        -208.7029   -95.5232   290.3984 C5            1 RES     
    9059 C5        -209.3400   -95.2897   288.9932 C5            1 RES     
    9060 C5        -210.5529   -96.1949   288.6155 C5            1 RES     
    9061 C5        -211.7411   -96.0375   289.6087 C5            1 RES     
    9062 C5        -212.6553   -97.2767   289.6348 C5            1 RES     
    9063 C5        -213.4810   -97.3428   290.9375 C5            1 RES     
    9064 C5        -214.1675   -98.7125   291.0870 C5            1 RES     
    9065 C5        -214.7537   -98.9503   292.4903 C5            1 RES     
    9066 C5        -215.9028   -98.0130   292.8446 C5            1 RES     
    9067 C5        -210.9153   -95.8995   287.1236 C5            1 RES     
    9068 C0        -211.8563   -96.7511   286.1869 C0            1 RES     
    9069 C5        -212.1866   -95.7935   284.9610 C5            1 RES     
    9070 C5        -213.6088   -95.1409   285.0052 C5            1 RES     
    9071 C5        -214.7320   -96.0413   284.3928 C5            1 RES     
    9072 C5        -214.7415   -96.1391   282.8491 C5            1 RES     
    9073 C5        -215.7353   -97.1707   282.2849 C5            1 RES     
    9074 C5        -217.2238   -96.7926   282.4074 C5            1 RES     
    9075 C5        -217.6407   -95.5195   281.6398 C5            1 RES     
    9076 C5        -217.3870   -95.6044   280.1311 C5            1 RES     
    9077 C5        -213.6436   -93.6730   284.4636 C5            1 RES     
    9078 C5        -212.8972   -93.3764   283.1371 C5            1 RES     
    9079 C5        -213.1744   -91.9592   282.5863 C5            1 RES     
    9080 C5        -212.7664   -90.8200   283.5398 C5            1 RES     
    9081 C5        -213.0416   -89.4151   282.9667 C5            1 RES     
    9082 C5        -212.1639   -89.0676   281.7486 C5            1 RES     
    9083 C5        -212.4400   -87.6658   281.1755 C5            1 RES     
    9084 C5        -212.1142   -86.5289   282.1453 C5            1 RES     
    9085 H6        -203.1375   -98.6040   291.4517 H6            1 RES     
    9086 H6        -202.2949  -100.1794   291.2982 H6            1 RES     
    9087 H6        -203.8301  -100.0827   292.2398 H6            1 RES     
    9088 H6        -203.5181   -99.6335   289.1916 H6            1 RES     
    9089 H6        -204.1372  -101.1270   289.9827 H6            1 RES     
    9090 H6        -205.9995   -99.8009   289.1273 H6            1 RES     
    9091 H6        -206.0654   -99.9100   290.9224 H6            1 RES     
    9092 H6        -205.0192   -97.4635   289.3207 H6            1 RES     
    9093 H6        -205.1562   -97.6003   291.1195 H6            1 RES     
    9094 H6        -207.4878   -97.7201   289.0959 H6            1 RES     
    9095 H6        -207.6072   -98.0000   290.8864 H6            1 RES     
    9096 H6        -206.8142   -95.8036   291.4059 H6            1 RES     
    9097 H6        -206.6333   -95.3363   289.6803 H6            1 RES     
    9098 H6        -209.2683   -96.2336   291.0347 H6            1 RES     
    9099 H6        -208.7379   -94.5412   290.9163 H6            1 RES     
    9100 H6        -208.5364   -95.4458   288.2387 H6            1 RES     
    9101 H6        -209.6381   -94.2228   288.9016 H6            1 RES     
    9102 H6        -210.1504   -97.1739   288.7498 H6            1 RES     
    9103 H6        -211.3150   -95.9814   290.6251 H6            1 RES     
    9104 H6        -212.3025   -95.0893   289.4637 H6            1 RES     
    9105 H6        -213.2930   -97.3311   288.7272 H6            1 RES     
    9106 H6        -211.9956   -98.1693   289.6561 H6            1 RES     
    9107 H6        -214.2147   -96.5096   290.9822 H6            1 RES     
    9108 H6        -212.7787   -97.2409   291.7947 H6            1 RES     
    9109 H6        -214.9457   -98.8418   290.3054 H6            1 RES     
    9110 H6        -213.3974   -99.5035   290.9435 H6            1 RES     
    9111 H6        -213.9488   -98.8488   293.2523 H6            1 RES     
    9112 H6        -215.1332   -99.9942   292.5362 H6            1 RES     
    9113 H6        -216.7299   -98.1301   292.1137 H6            1 RES     
    9114 H6        -215.5646   -96.9571   292.8624 H6            1 RES     
    9115 H6        -216.2830   -98.2719   293.8563 H6            1 RES     
    9116 H6        -209.9633   -95.8397   286.5505 H6            1 RES     
    9117 H6        -211.3326   -94.8664   287.1691 H6            1 RES     
    9118 H6        -211.4375   -94.9740   284.9586 H6            1 RES     
    9119 H6        -211.9952   -96.2350   283.9732 H6            1 RES     
    9120 H6        -213.8734   -95.0353   286.0825 H6            1 RES     
    9121 H6        -214.6351   -97.0565   284.8351 H6            1 RES     
    9122 H6        -215.7194   -95.6356   284.7010 H6            1 RES     
    9123 H6        -214.9703   -95.1607   282.3922 H6            1 RES     
    9124 H6        -213.7393   -96.4378   282.5085 H6            1 RES     
    9125 H6        -215.5056   -97.3289   281.2103 H6            1 RES     
    9126 H6        -215.5686   -98.1432   282.7905 H6            1 RES     
    9127 H6        -217.4880   -96.6721   283.4784 H6            1 RES     
    9128 H6        -217.8221   -97.6414   282.0089 H6            1 RES     
    9129 H6        -217.1239   -94.6272   282.0487 H6            1 RES     
    9130 H6        -218.7315   -95.3721   281.7936 H6            1 RES     
    9131 H6        -217.9131   -96.4810   279.6965 H6            1 RES     
    9132 H6        -217.7676   -94.6847   279.6386 H6            1 RES     
    9133 H6        -216.3028   -95.6780   279.9086 H6            1 RES     
    9134 H6        -213.1592   -93.0323   285.2306 H6            1 RES     
    9135 H6        -214.7072   -93.3563   284.3940 H6            1 RES     
    9136 H6        -213.1836   -94.0716   282.3351 H6            1 RES     
    9137 H6        -211.8056   -93.4997   283.2841 H6            1 RES     
    9138 H6        -212.6070   -91.8702   281.6371 H6            1 RES     
    9139 H6        -214.2578   -91.8664   282.3517 H6            1 RES     
    9140 H6        -211.6904   -90.9080   283.8040 H6            1 RES     
    9141 H6        -213.3651   -90.9081   284.4703 H6            1 RES     
    9142 H6        -214.1174   -89.3274   282.6981 H6            1 RES     
    9143 H6        -212.8259   -88.6895   283.7780 H6            1 RES     
    9144 H6        -212.3641   -89.7894   280.9311 H6            1 RES     
    9145 H6        -211.0905   -89.1445   282.0285 H6            1 RES     
    9146 H6        -211.8035   -87.5339   280.2733 H6            1 RES     
    9147 H6        -213.5034   -87.5897   280.8609 H6            1 RES     
    9148 H6        -212.7672   -86.5633   283.0404 H6            1 RES     
    9149 H6        -212.2858   -85.5551   281.6394 H6            1 RES     
    9150 H6        -211.0504   -86.5821   282.4591 H6            1 RES     
    9151 C0        -205.0440  -102.2917   295.7303 C0            1 RES     
    9152 C0        -205.1600  -103.6269   296.4663 C0            1 RES     
    9153 C0        -206.3424  -104.2348   296.2063 C0            1 RES     
    9154 S1        -206.4946  -105.7316   296.9397 S1            1 RES     
    9155 C0        -204.9493  -105.6267   297.6489 C0            1 RES     
    9156 C0        -204.3301  -104.4320   297.2440 C0            1 RES     
    9157 C0        -207.0554  -103.4860   295.2298 C0            1 RES     
    9158 C0        -206.3282  -102.4424   294.9002 C0            1 RES     
    9159 C0        -206.8530  -101.7768   293.7224 C0            1 RES     
    9160 C0        -208.0027  -102.4107   293.2762 C0            1 RES     
    9161 S1        -208.5187  -103.8257   294.2700 S1            1 RES     
    9162 H2        -203.3082  -104.2142   297.4708 H2            1 RES     
    9163 H2        -206.3551  -100.9994   293.1689 H2            1 RES     
    9164 N3        -202.6571  -107.1419   300.2257 N3            1 RES     
    9165 C0        -203.2606  -106.2525   299.3865 C0            1 RES     
    9166 C0        -204.3155  -106.6393   298.5354 C0            1 RES     
    9167 C0        -204.7249  -107.9814   298.6009 C0            1 RES     
    9168 N3        -205.7220  -108.5196   297.8490 N3            1 RES     
    9169 S1        -205.7201  -110.1014   298.3314 S1            1 RES     
    9170 N3        -204.5172  -110.1707   299.4611 N3            1 RES     
    9171 C0        -204.0708  -108.8884   299.4771 C0            1 RES     
    9172 C0        -203.0335  -108.4484   300.2888 C0            1 RES     
    9173 H4        -202.9354  -105.2274   299.4081 H4            1 RES     
    9174 C5        -197.3558  -107.6007   298.9133 C5            1 RES     
    9175 C5        -198.3698  -107.3034   297.8076 C5            1 RES     
    9176 C5        -199.5255  -106.3914   298.2563 C5            1 RES     
    9177 C5        -199.0800  -104.9886   298.7145 C5            1 RES     
    9178 C5        -200.3021  -104.1335   299.0917 C5            1 RES     
    9179 C5        -199.9152  -102.8051   299.7572 C5            1 RES     
    9180 C5        -201.1489  -101.9880   300.2093 C5            1 RES     
    9181 C5        -201.8628  -101.1843   299.0782 C5            1 RES     
    9182 C5        -203.3476  -101.5600   298.7828 C5            1 RES     
    9183 C5        -204.2645  -101.3727   300.0267 C5            1 RES     
    9184 C5        -205.5250  -102.2557   299.9678 C5            1 RES     
    9185 C5        -206.1345  -102.4652   301.3707 C5            1 RES     
    9186 C5        -207.2085  -103.5678   301.3468 C5            1 RES     
    9187 C5        -207.6375  -104.0309   302.7507 C5            1 RES     
    9188 C5        -208.3487  -102.9548   303.5636 C5            1 RES     
    9189 C5        -203.7968  -100.7515   297.5222 C5            1 RES     
    9190 C0        -205.0885  -100.9911   296.6493 C0            1 RES     
    9191 C5        -205.2507   -99.6643   295.7878 C5            1 RES     
    9192 C5        -206.3547   -98.6809   296.3023 C5            1 RES     
    9193 C5        -207.7871   -99.0087   295.7658 C5            1 RES     
    9194 C5        -208.0449   -98.6437   294.2850 C5            1 RES     
    9195 C5        -209.3934   -99.1420   293.7343 C5            1 RES     
    9196 C5        -210.6392   -98.4138   294.2737 C5            1 RES     
    9197 C5        -210.7132   -96.9083   293.9390 C5            1 RES     
    9198 C5        -210.7163   -96.6158   292.4349 C5            1 RES     
    9199 C5        -205.9759   -97.1711   296.1407 C5            1 RES     
    9200 C5        -205.3672   -96.7217   294.7872 C5            1 RES     
    9201 C5        -205.2326   -95.1873   294.6596 C5            1 RES     
    9202 C5        -204.3402   -94.5399   295.7356 C5            1 RES     
    9203 C5        -204.2109   -93.0108   295.5836 C5            1 RES     
    9204 C5        -203.4476   -92.5835   294.3149 C5            1 RES     
    9205 C5        -203.3203   -91.0571   294.1624 C5            1 RES     
    9206 C5        -202.5031   -90.3934   295.2718 C5            1 RES     
    9207 H6        -196.8322  -106.6769   299.2325 H6            1 RES     
    9208 H6        -196.5906  -108.3087   298.5295 H6            1 RES     
    9209 H6        -197.8585  -108.0642   299.7886 H6            1 RES     
    9210 H6        -197.8458  -106.8494   296.9400 H6            1 RES     
    9211 H6        -198.8081  -108.2718   297.4788 H6            1 RES     
    9212 H6        -200.2251  -106.2859   297.3990 H6            1 RES     
    9213 H6        -200.0711  -106.8923   299.0863 H6            1 RES     
    9214 H6        -198.5077  -104.4818   297.9070 H6            1 RES     
    9215 H6        -198.4287  -105.0947   299.6073 H6            1 RES     
    9216 H6        -200.9273  -103.9563   298.1905 H6            1 RES     
    9217 H6        -200.8805  -104.7026   299.8457 H6            1 RES     
    9218 H6        -199.3389  -103.0702   300.6714 H6            1 RES     
    9219 H6        -199.2570  -102.1891   299.1075 H6            1 RES     
    9220 H6        -201.8230  -102.6644   300.7726 H6            1 RES     
    9221 H6        -200.7831  -101.2322   300.9365 H6            1 RES     
    9222 H6        -201.2708  -101.3321   298.1471 H6            1 RES     
    9223 H6        -201.7996  -100.0985   299.3079 H6            1 RES     
    9224 H6        -203.2783  -102.6072   298.5905 H6            1 RES     
    9225 H6        -203.7059  -101.7386   300.9052 H6            1 RES     
    9226 H6        -204.4939  -100.3057   300.2374 H6            1 RES     
    9227 H6        -206.2651  -101.8605   299.2403 H6            1 RES     
    9228 H6        -205.2029  -103.2633   299.6309 H6            1 RES     
    9229 H6        -206.5361  -101.5105   301.7728 H6            1 RES     
    9230 H6        -205.3253  -102.8204   302.0470 H6            1 RES     
    9231 H6        -208.0869  -103.2384   300.7526 H6            1 RES     
    9232 H6        -206.7728  -104.4652   300.8529 H6            1 RES     
    9233 H6        -206.7461  -104.3875   303.3138 H6            1 RES     
    9234 H6        -208.3315  -104.8917   302.6358 H6            1 RES     
    9235 H6        -209.2616  -102.6154   303.0312 H6            1 RES     
    9236 H6        -207.6802  -102.0901   303.7508 H6            1 RES     
    9237 H6        -208.6475  -103.3806   304.5457 H6            1 RES     
    9238 H6        -202.9692  -100.7969   296.7797 H6            1 RES     
    9239 H6        -203.8368   -99.7033   297.9005 H6            1 RES     
    9240 H6        -204.2803   -99.1253   295.8081 H6            1 RES     
    9241 H6        -205.3572   -99.8326   294.7072 H6            1 RES     
    9242 H6        -206.4154   -98.8252   297.4056 H6            1 RES     
    9243 H6        -207.9716  -100.0933   295.9252 H6            1 RES     
    9244 H6        -208.5303   -98.4506   296.3746 H6            1 RES     
    9245 H6        -207.9976   -97.5515   294.1329 H6            1 RES     
    9246 H6        -207.2568   -99.0988   293.6673 H6            1 RES     
    9247 H6        -209.3823   -99.0367   292.6291 H6            1 RES     
    9248 H6        -209.4898  -100.2257   293.9478 H6            1 RES     
    9249 H6        -210.6956   -98.5427   295.3745 H6            1 RES     
    9250 H6        -211.5350   -98.9047   293.8333 H6            1 RES     
    9251 H6        -209.8777   -96.3578   294.4176 H6            1 RES     
    9252 H6        -211.6603   -96.5119   294.3645 H6            1 RES     
    9253 H6        -211.5590   -97.1418   291.9376 H6            1 RES     
    9254 H6        -210.8352   -95.5241   292.2696 H6            1 RES     
    9255 H6        -209.7606   -96.9228   291.9630 H6            1 RES     
    9256 H6        -205.2038   -96.9462   296.9068 H6            1 RES     
    9257 H6        -206.8726   -96.5621   296.3884 H6            1 RES     
    9258 H6        -205.9775   -97.0418   293.9307 H6            1 RES     
    9259 H6        -204.3692   -97.1843   294.6515 H6            1 RES     
    9260 H6        -204.8068   -94.9877   293.6547 H6            1 RES     
    9261 H6        -206.2453   -94.7292   294.7034 H6            1 RES     
    9262 H6        -203.3286   -95.0002   295.7226 H6            1 RES     
    9263 H6        -204.7974   -94.7244   296.7301 H6            1 RES     
    9264 H6        -205.2230   -92.5495   295.5924 H6            1 RES     
    9265 H6        -203.6552   -92.6457   296.4720 H6            1 RES     
    9266 H6        -203.9886   -92.9477   293.4182 H6            1 RES     
    9267 H6        -202.4326   -93.0376   294.3199 H6            1 RES     
    9268 H6        -202.8093   -90.8515   293.1965 H6            1 RES     
    9269 H6        -204.3311   -90.5964   294.1222 H6            1 RES     
    9270 H6        -202.9982   -90.5031   296.2576 H6            1 RES     
    9271 H6        -202.4109   -89.3071   295.0594 H6            1 RES     
    9272 H6        -201.4844   -90.8330   295.3166 H6            1 RES     
    9273 C0        -199.2347  -110.7632   302.8477 C0            1 RES     
    9274 C0        -199.6828  -112.1662   303.2582 C0            1 RES     
    9275 C0        -201.0240  -112.3133   303.1366 C0            1 RES     
    9276 S1        -201.5600  -113.8531   303.5151 S1            1 RES     
    9277 C0        -199.9842  -114.3993   303.8623 C0            1 RES     
    9278 C0        -199.0668  -113.3630   303.6188 C0            1 RES     
    9279 C0        -201.5776  -111.1427   302.5485 C0            1 RES     
    9280 C0        -200.5991  -110.2970   302.3167 C0            1 RES     
    9281 C0        -201.0328  -109.1964   301.4762 C0            1 RES     
    9282 C0        -202.3783  -109.3218   301.1651 C0            1 RES     
    9283 S1        -203.1899  -110.7608   301.8909 S1            1 RES     
    9284 H2        -198.0096  -113.5177   303.6541 H2            1 RES     
    9285 H2        -200.3879  -108.4639   301.0221 H2            1 RES     
    9286 N3        -197.9875  -117.1827   305.4294 N3            1 RES     
    9287 C0        -198.3730  -115.9546   304.9793 C0            1 RES     
    9288 C0        -199.6047  -115.7624   304.3216 C0            1 RES     
    9289 C0        -200.4230  -116.8930   304.1623 C0            1 RES     
    9290 N3        -201.6371  -116.8846   303.5500 N3            1 RES     
    9291 S1        -202.0927  -118.4719   303.6365 S1            1 RES     
    9292 N3        -200.8352  -119.2040   304.4178 N3            1 RES     
    9293 C0        -199.9909  -118.1623   304.6319 C0            1 RES     
    9294 C0        -198.7635  -118.2894   305.2688 C0            1 RES     
    9295 H4        -197.7264  -115.1154   305.1659 H4            1 RES     
    9296 C5        -193.3786  -118.7087   302.8867 C5            1 RES     
    9297 C5        -194.3809  -117.8283   302.1387 C5            1 RES     
    9298 C5        -195.0933  -116.8011   303.0365 C5            1 RES     
    9299 C5        -194.1480  -115.7783   303.6971 C5            1 RES     
    9300 C5        -194.9513  -114.7635   304.5289 C5            1 RES     
    9301 C5        -194.0562  -113.8530   305.3815 C5            1 RES     
    9302 C5        -194.8724  -112.8916   306.2779 C5            1 RES     
    9303 C5        -195.4302  -111.6253   305.5565 C5            1 RES     
    9304 C5        -196.9814  -111.4647   305.5238 C5            1 RES     
    9305 C5        -197.6002  -111.3997   306.9507 C5            1 RES     
    9306 C5        -199.0773  -111.8351   306.9727 C5            1 RES     
    9307 C5        -199.5187  -112.2657   308.3880 C5            1 RES     
    9308 C5        -200.8898  -112.9644   308.3499 C5            1 RES     
    9309 C5        -201.2469  -113.6779   309.6663 C5            1 RES     
    9310 C5        -201.4392  -112.7323   310.8467 C5            1 RES     
    9311 C5        -197.3088  -110.2306   304.6214 C5            1 RES     
    9312 C0        -198.7157  -109.8309   304.0308 C0            1 RES     
    9313 C5        -198.5475  -108.3206   303.5623 C5            1 RES     
    9314 C5        -199.1787  -107.2620   304.5273 C5            1 RES     
    9315 C5        -200.6990  -107.0018   304.2660 C5            1 RES     
    9316 C5        -201.0259  -106.1624   303.0086 C5            1 RES     
    9317 C5        -202.5264  -106.0774   302.6751 C5            1 RES     
    9318 C5        -203.3713  -105.2194   303.6361 C5            1 RES     
    9319 C5        -202.9876  -103.7247   303.6877 C5            1 RES     
    9320 C5        -203.1043  -103.0164   302.3340 C5            1 RES     
    9321 C5        -198.3469  -105.9413   304.6418 C5            1 RES     
    9322 C5        -197.8197  -105.3056   303.3293 C5            1 RES     
    9323 C5        -197.2028  -103.9038   303.5367 C5            1 RES     
    9324 C5        -196.0046  -103.8779   304.5046 C5            1 RES     
    9325 C5        -195.3978  -102.4723   304.6889 C5            1 RES     
    9326 C5        -194.7219  -101.9251   303.4166 C5            1 RES     
    9327 C5        -194.1178  -100.5212   303.6002 C5            1 RES     
    9328 C5        -192.9797  -100.4691   304.6205 C5            1 RES     
    9329 H6        -192.5388  -118.1050   303.2864 H6            1 RES     
    9330 H6        -192.9536  -119.4586   302.1859 H6            1 RES     
    9331 H6        -193.8787  -119.2470   303.7196 H6            1 RES     
    9332 H6        -193.8630  -117.3068   301.3060 H6            1 RES     
    9333 H6        -195.1573  -118.4939   301.7003 H6            1 RES     
    9334 H6        -195.8312  -116.2570   302.4077 H6            1 RES     
    9335 H6        -195.6522  -117.3483   303.8275 H6            1 RES     
    9336 H6        -193.5591  -115.2398   302.9227 H6            1 RES     
    9337 H6        -193.4504  -116.3197   304.3701 H6            1 RES     
    9338 H6        -195.6020  -114.1621   303.8586 H6            1 RES     
    9339 H6        -195.5740  -115.3416   305.2394 H6            1 RES     
    9340 H6        -193.4784  -114.5249   306.0545 H6            1 RES     
    9341 H6        -193.3288  -113.2849   304.7626 H6            1 RES     
    9342 H6        -195.6467  -113.4851   306.8046 H6            1 RES     
    9343 H6        -194.1783  -112.5165   307.0598 H6            1 RES     
    9344 H6        -195.0576  -111.6544   304.5079 H6            1 RES     
    9345 H6        -194.9786  -110.7179   306.0131 H6            1 RES     
    9346 H6        -197.2912  -112.3850   305.0817 H6            1 RES     
    9347 H6        -197.0774  -112.1483   307.5703 H6            1 RES     
    9348 H6        -197.4304  -110.4217   307.4509 H6            1 RES     
    9349 H6        -199.7386  -111.0529   306.5436 H6            1 RES     
    9350 H6        -199.1585  -112.7479   306.3461 H6            1 RES     
    9351 H6        -199.5201  -111.3979   309.0818 H6            1 RES     
    9352 H6        -198.7869  -113.0157   308.7626 H6            1 RES     
    9353 H6        -201.6833  -112.2424   308.0626 H6            1 RES     
    9354 H6        -200.8505  -113.7626   307.5749 H6            1 RES     
    9355 H6        -200.4548  -114.4192   309.9148 H6            1 RES     
    9356 H6        -202.1962  -114.2358   309.5129 H6            1 RES     
    9357 H6        -202.2528  -112.0095   310.6281 H6            1 RES     
    9358 H6        -200.5024  -112.1847   311.0752 H6            1 RES     
    9359 H6        -201.7216  -113.3248   311.7435 H6            1 RES     
    9360 H6        -196.6560  -110.2875   303.7221 H6            1 RES     
    9361 H6        -196.9452  -109.3721   305.2331 H6            1 RES     
    9362 H6        -197.4604  -108.1068   303.4888 H6            1 RES     
    9363 H6        -198.8541  -108.1283   302.5249 H6            1 RES     
    9364 H6        -199.1286  -107.6996   305.5509 H6            1 RES     
    9365 H6        -201.2087  -107.9878   304.2050 H6            1 RES     
    9366 H6        -201.1216  -106.4608   305.1396 H6            1 RES     
    9367 H6        -200.6407  -105.1329   303.1091 H6            1 RES     
    9368 H6        -200.5285  -106.6191   302.1405 H6            1 RES     
    9369 H6        -202.6361  -105.6608   301.6518 H6            1 RES     
    9370 H6        -202.9461  -107.1032   302.6457 H6            1 RES     
    9371 H6        -203.3123  -105.6435   304.6598 H6            1 RES     
    9372 H6        -204.4316  -105.2873   303.3066 H6            1 RES     
    9373 H6        -201.9583  -103.5966   304.0808 H6            1 RES     
    9374 H6        -203.6798  -103.2207   304.3961 H6            1 RES     
    9375 H6        -204.1346  -103.1146   301.9306 H6            1 RES     
    9376 H6        -202.8759  -101.9368   302.4594 H6            1 RES     
    9377 H6        -202.3807  -103.4276   301.6006 H6            1 RES     
    9378 H6        -197.4446  -106.1770   305.2450 H6            1 RES     
    9379 H6        -198.9466  -105.2051   305.2203 H6            1 RES     
    9380 H6        -198.6153  -105.1760   302.5819 H6            1 RES     
    9381 H6        -197.0613  -105.9694   302.8681 H6            1 RES     
    9382 H6        -196.8802  -103.5471   302.5369 H6            1 RES     
    9383 H6        -197.9892  -103.2132   303.9133 H6            1 RES     
    9384 H6        -195.2155  -104.5792   304.1569 H6            1 RES     
    9385 H6        -196.3529  -104.2090   305.5053 H6            1 RES     
    9386 H6        -196.1876  -101.7687   305.0329 H6            1 RES     
    9387 H6        -194.6336  -102.5548   305.4893 H6            1 RES     
    9388 H6        -195.4731  -101.8435   302.6053 H6            1 RES     
    9389 H6        -193.9250  -102.6270   303.0867 H6            1 RES     
    9390 H6        -193.7083  -100.1944   302.6195 H6            1 RES     
    9391 H6        -194.9135   -99.8042   303.8975 H6            1 RES     
    9392 H6        -193.3397  -100.7187   305.6389 H6            1 RES     
    9393 H6        -192.5629   -99.4401   304.6526 H6            1 RES     
    9394 H6        -192.1690  -101.1704   304.3307 H6            1 RES     
    9395 C0        -195.6293  -122.2220   306.2929 C0            1 RES     
    9396 C0        -196.4554  -123.4984   306.4544 C0            1 RES     
    9397 C0        -197.7724  -123.2201   306.6072 C0            1 RES     
    9398 S1        -198.7304  -124.5874   306.7263 S1            1 RES     
    9399 C0        -197.3931  -125.6313   306.5721 C0            1 RES     
    9400 C0        -196.2275  -124.8709   306.3772 C0            1 RES     
    9401 C0        -197.9828  -121.8225   306.4490 C0            1 RES     
    9402 C0        -196.8218  -121.2568   306.2068 C0            1 RES     
    9403 C0        -196.9789  -119.8831   305.7666 C0            1 RES     
    9404 C0        -198.3193  -119.5283   305.7461 C0            1 RES     
    9405 S1        -199.4522  -120.8276   306.2793 S1            1 RES     
    9406 H2        -195.2876  -125.3199   306.1363 H2            1 RES     
    9407 H2        -196.1979  -119.2621   305.3628 H2            1 RES     
    9408 N3        -196.2346  -129.1952   306.9546 N3            1 RES     
    9409 C0        -196.2497  -127.8327   306.9025 C0            1 RES     
    9410 C0        -197.4271  -127.1182   306.6028 C0            1 RES     
    9411 C0        -198.5880  -127.8749   306.3723 C0            1 RES     
    9412 N3        -199.8036  -127.3465   306.0686 N3            1 RES     
    9413 S1        -200.7433  -128.6945   305.8824 S1            1 RES     
    9414 N3        -199.7037  -129.9459   306.1671 N3            1 RES     
    9415 C0        -198.5404  -129.2938   306.4228 C0            1 RES     
    9416 C0        -197.3482  -129.9415   306.7190 C0            1 RES     
    9417 H4        -195.3418  -127.3022   307.1293 H4            1 RES     
    9418 C5        -192.7982  -131.1419   303.1549 C5            1 RES     
    9419 C5        -193.5458  -129.8365   302.8788 C5            1 RES     
    9420 C5        -193.7436  -128.9600   304.1283 C5            1 RES     
    9421 C5        -192.4297  -128.4844   304.7791 C5            1 RES     
    9422 C5        -192.7256  -127.5745   305.9839 C5            1 RES     
    9423 C5        -191.4688  -127.2436   306.8013 C5            1 RES     
    9424 C5        -191.7855  -126.3977   308.0577 C5            1 RES     
    9425 C5        -191.9867  -124.8724   307.7967 C5            1 RES     
    9426 C5        -193.3850  -124.2799   308.1527 C5            1 RES     
    9427 C5        -193.7405  -124.4640   309.6570 C5            1 RES     
    9428 C5        -195.2599  -124.4531   309.9088 C5            1 RES     
    9429 C5        -195.6161  -125.1366   311.2464 C5            1 RES     
    9430 C5        -197.1324  -125.3785   311.3561 C5            1 RES     
    9431 C5        -197.5178  -126.3153   312.5150 C5            1 RES     
    9432 C5        -197.2178  -125.7425   313.8958 C5            1 RES     
    9433 C5        -193.4073  -122.7959   307.6612 C5            1 RES     
    9434 C0        -194.6699  -121.8621   307.5127 C0            1 RES     
    9435 C5        -194.0773  -120.3920   307.3844 C5            1 RES     
    9436 C5        -194.1795  -119.5293   308.6867 C5            1 RES     
    9437 C5        -195.5480  -118.7876   308.8427 C5            1 RES     
    9438 C5        -195.7507  -117.5605   307.9230 C5            1 RES     
    9439 C5        -197.1690  -116.9633   307.9654 C5            1 RES     
    9440 C5        -197.5375  -116.2228   309.2651 C5            1 RES     
    9441 C5        -196.6763  -114.9797   309.5766 C5            1 RES     
    9442 C5        -196.7399  -113.9034   308.4879 C5            1 RES     
    9443 C5        -192.9492  -118.5897   308.9160 C5            1 RES     
    9444 C5        -192.4304  -117.7729   307.7043 C5            1 RES     
    9445 C5        -191.3607  -116.7259   308.0888 C5            1 RES     
    9446 C5        -190.0986  -117.3224   308.7406 C5            1 RES     
    9447 C5        -189.0402  -116.2622   309.1064 C5            1 RES     
    9448 C5        -188.4065  -115.5800   307.8786 C5            1 RES     
    9449 C5        -187.3513  -114.5204   308.2440 C5            1 RES     
    9450 C5        -186.1292  -115.0914   308.9649 C5            1 RES     
    9451 H6        -191.7584  -130.9432   303.4848 H6            1 RES     
    9452 H6        -192.7488  -131.7417   302.2212 H6            1 RES     
    9453 H6        -193.3266  -131.7370   303.9297 H6            1 RES     
    9454 H6        -193.0063  -129.2618   302.0962 H6            1 RES     
    9455 H6        -194.5524  -130.0982   302.4835 H6            1 RES     
    9456 H6        -194.3394  -128.0713   303.8269 H6            1 RES     
    9457 H6        -194.3356  -129.5345   304.8746 H6            1 RES     
    9458 H6        -191.8102  -127.9313   304.0398 H6            1 RES     
    9459 H6        -191.8642  -129.3724   305.1322 H6            1 RES     
    9460 H6        -193.2270  -126.6458   305.6369 H6            1 RES     
    9461 H6        -193.3987  -128.1357   306.6612 H6            1 RES     
    9462 H6        -191.0585  -128.2170   307.1508 H6            1 RES     
    9463 H6        -190.6885  -126.7478   306.1847 H6            1 RES     
    9464 H6        -192.6309  -126.8765   308.5916 H6            1 RES     
    9465 H6        -190.9039  -126.4788   308.7285 H6            1 RES     
    9466 H6        -191.7958  -124.6970   306.7141 H6            1 RES     
    9467 H6        -191.2003  -124.3037   308.3388 H6            1 RES     
    9468 H6        -194.0415  -124.9045   307.5893 H6            1 RES     
    9469 H6        -193.4144  -125.4765   309.9505 H6            1 RES     
    9470 H6        -193.1875  -123.7643   310.3202 H6            1 RES     
    9471 H6        -195.6773  -123.4266   309.8346 H6            1 RES     
    9472 H6        -195.7264  -125.0811   309.1213 H6            1 RES     
    9473 H6        -195.2321  -124.5461   312.1057 H6            1 RES     
    9474 H6        -195.1299  -126.1375   311.2607 H6            1 RES     
    9475 H6        -197.6732  -124.4114   311.4317 H6            1 RES     
    9476 H6        -197.4693  -125.8922   310.4278 H6            1 RES     
    9477 H6        -196.9900  -127.2883   312.3986 H6            1 RES     
    9478 H6        -198.6099  -126.5134   312.4534 H6            1 RES     
    9479 H6        -197.7675  -124.7892   314.0410 H6            1 RES     
    9480 H6        -196.1301  -125.5723   314.0287 H6            1 RES     
    9481 H6        -197.5521  -126.4670   314.6693 H6            1 RES     
    9482 H6        -192.9434  -122.7682   306.6501 H6            1 RES     
    9483 H6        -192.6974  -122.2924   308.3583 H6            1 RES     
    9484 H6        -193.0027  -120.4807   307.1200 H6            1 RES     
    9485 H6        -194.4450  -119.8264   306.5171 H6            1 RES     
    9486 H6        -194.1345  -120.2429   309.5414 H6            1 RES     
    9487 H6        -196.3592  -119.5275   308.6696 H6            1 RES     
    9488 H6        -195.6402  -118.4299   309.8906 H6            1 RES     
    9489 H6        -195.0355  -116.7574   308.1718 H6            1 RES     
    9490 H6        -195.5599  -117.8638   306.8832 H6            1 RES     
    9491 H6        -197.2765  -116.2523   307.1195 H6            1 RES     
    9492 H6        -197.9051  -117.7742   307.7926 H6            1 RES     
    9493 H6        -197.4797  -116.9265   310.1212 H6            1 RES     
    9494 H6        -198.5953  -115.8902   309.1765 H6            1 RES     
    9495 H6        -195.6186  -115.2671   309.7465 H6            1 RES     
    9496 H6        -197.0555  -114.5317   310.5204 H6            1 RES     
    9497 H6        -197.7902  -113.5854   308.3154 H6            1 RES     
    9498 H6        -196.1510  -113.0176   308.8072 H6            1 RES     
    9499 H6        -196.3042  -114.2681   307.5352 H6            1 RES     
    9500 H6        -192.1012  -119.2353   309.2283 H6            1 RES     
    9501 H6        -193.1832  -117.9175   309.7703 H6            1 RES     
    9502 H6        -193.2344  -117.2120   307.2068 H6            1 RES     
    9503 H6        -192.0080  -118.4578   306.9421 H6            1 RES     
    9504 H6        -191.0815  -116.1979   307.1538 H6            1 RES     
    9505 H6        -191.8123  -115.9837   308.7835 H6            1 RES     
    9506 H6        -189.6441  -118.0835   308.0701 H6            1 RES     
    9507 H6        -190.3931  -117.8198   309.6882 H6            1 RES     
    9508 H6        -189.4952  -115.4978   309.7741 H6            1 RES     
    9509 H6        -188.2426  -116.7868   309.6721 H6            1 RES     
    9510 H6        -189.1939  -115.0567   307.2994 H6            1 RES     
    9511 H6        -187.9423  -116.3490   307.2231 H6            1 RES     
    9512 H6        -186.9983  -114.0499   307.3004 H6            1 RES     
    9513 H6        -187.8139  -113.7284   308.8719 H6            1 RES     
    9514 H6        -186.4052  -115.5162   309.9510 H6            1 RES     
    9515 H6        -185.3945  -114.2775   309.1417 H6            1 RES     
    9516 H6        -185.6464  -115.8755   308.3444 H6            1 RES     
    9517 C0        -195.5862  -134.7167   306.0632 C0            1 RES     
    9518 C0        -196.7578  -135.6982   306.1040 C0            1 RES     
    9519 C0        -197.8726  -135.1182   306.6102 C0            1 RES     
    9520 S1        -199.2034  -136.1334   306.6193 S1            1 RES     
    9521 C0        -198.3239  -137.4184   305.9284 C0            1 RES     
    9522 C0        -197.0115  -136.9941   305.6591 C0            1 RES     
    9523 C0        -197.6271  -133.7355   306.8343 C0            1 RES     
    9524 C0        -196.3903  -133.4741   306.4758 C0            1 RES     
    9525 C0        -196.1427  -132.0455   306.4157 C0            1 RES     
    9526 C0        -197.2781  -131.3384   306.7811 C0            1 RES     
    9527 S1        -198.6915  -132.3634   307.2372 S1            1 RES     
    9528 H2        -196.3176  -137.5983   305.1146 H2            1 RES     
    9529 H2        -195.2646  -131.5794   306.0029 H2            1 RES     
    9530 N3        -198.3724  -141.1133   305.1969 N3            1 RES     
    9531 C0        -197.9416  -139.8485   305.4692 C0            1 RES     
    9532 C0        -198.8448  -138.7768   305.6178 C0            1 RES     
    9533 C0        -200.2112  -139.0744   305.4846 C0            1 RES     
    9534 N3        -201.2124  -138.1609   305.5946 N3            1 RES     
    9535 S1        -202.5625  -139.0740   305.3153 S1            1 RES     
    9536 N3        -201.9681  -140.5934   305.0582 N3            1 RES     
    9537 C0        -200.6307  -140.3994   305.1902 C0            1 RES     
    9538 C0        -199.6920  -141.4133   305.0506 C0            1 RES     
    9539 H4        -196.8868  -139.6853   305.6031 H4            1 RES     
    9540 C5        -196.3457  -142.7468   300.3740 C5            1 RES     
    9541 C5        -196.6486  -141.2627   300.5861 C5            1 RES     
    9542 C5        -196.3670  -140.7718   302.0173 C5            1 RES     
    9543 C5        -194.8922  -140.8970   302.4480 C5            1 RES     
    9544 C5        -194.6973  -140.3347   303.8667 C5            1 RES     
    9545 C5        -193.3005  -140.6248   304.4342 C5            1 RES     
    9546 C5        -193.1390  -140.1303   305.8914 C5            1 RES     
    9547 C5        -192.8570  -138.6034   306.0461 C5            1 RES     
    9548 C5        -193.9149  -137.7728   306.8363 C5            1 RES     
    9549 C5        -194.0967  -138.2813   308.2962 C5            1 RES     
    9550 C5        -195.4751  -137.9178   308.8792 C5            1 RES     
    9551 C5        -195.8467  -138.8338   310.0650 C5            1 RES     
    9552 C5        -197.3261  -138.6605   310.4539 C5            1 RES     
    9553 C5        -197.8340  -139.7476   311.4181 C5            1 RES     
    9554 C5        -197.1705  -139.7124   312.7903 C5            1 RES     
    9555 C5        -193.5121  -136.2664   306.7229 C5            1 RES     
    9556 C0        -194.4007  -135.0145   307.0850 C0            1 RES     
    9557 C5        -193.3780  -133.8000   307.1735 C5            1 RES     
    9558 C5        -193.0045  -133.3639   308.6298 C5            1 RES     
    9559 C5        -194.0130  -132.3469   309.2589 C5            1 RES     
    9560 C5        -193.9237  -130.8992   308.7212 C5            1 RES     
    9561 C5        -195.0426  -129.9670   309.2203 C5            1 RES     
    9562 C5        -194.9584  -129.5669   310.7056 C5            1 RES     
    9563 C5        -193.6988  -128.7642   311.0965 C5            1 RES     
    9564 C5        -193.5535  -127.4440   310.3325 C5            1 RES     
    9565 C5        -191.5127  -132.9182   308.7890 C5            1 RES     
    9566 C5        -190.9276  -131.9630   307.7167 C5            1 RES     
    9567 C5        -189.5283  -131.4194   308.0840 C5            1 RES     
    9568 C5        -188.4576  -132.5102   308.2769 C5            1 RES     
    9569 C5        -187.0671  -131.9460   308.6322 C5            1 RES     
    9570 C5        -186.4216  -131.1413   307.4873 C5            1 RES     
    9571 C5        -185.0345  -130.5766   307.8428 C5            1 RES     
    9572 C5        -183.9829  -131.6530   308.1160 C5            1 RES     
    9573 H6        -195.2635  -142.9542   300.4982 H6            1 RES     
    9574 H6        -196.6296  -143.0356   299.3396 H6            1 RES     
    9575 H6        -196.9275  -143.3689   301.0869 H6            1 RES     
    9576 H6        -196.0643  -140.6602   299.8586 H6            1 RES     
    9577 H6        -197.7298  -141.1032   300.3779 H6            1 RES     
    9578 H6        -196.6701  -139.7037   302.0740 H6            1 RES     
    9579 H6        -197.0053  -141.3487   302.7224 H6            1 RES     
    9580 H6        -194.2344  -140.3493   301.7383 H6            1 RES     
    9581 H6        -194.6099  -141.9708   302.4472 H6            1 RES     
    9582 H6        -194.9054  -139.2434   303.8684 H6            1 RES     
    9583 H6        -195.4165  -140.8565   304.5280 H6            1 RES     
    9584 H6        -193.1918  -141.7322   304.4450 H6            1 RES     
    9585 H6        -192.4945  -140.2107   303.7909 H6            1 RES     
    9586 H6        -194.0117  -140.4865   306.4751 H6            1 RES     
    9587 H6        -192.2495  -140.6487   306.3084 H6            1 RES     
    9588 H6        -192.7725  -138.1799   305.0200 H6            1 RES     
    9589 H6        -191.8587  -138.4634   306.5145 H6            1 RES     
    9590 H6        -194.8135  -137.9942   306.3053 H6            1 RES     
    9591 H6        -194.0874  -139.3843   308.2639 H6            1 RES     
    9592 H6        -193.2556  -137.9914   308.9624 H6            1 RES     
    9593 H6        -195.5342  -136.8406   309.1428 H6            1 RES     
    9594 H6        -196.2292  -138.1302   308.0927 H6            1 RES     
    9595 H6        -195.1721  -138.6535   310.9292 H6            1 RES     
    9596 H6        -195.7234  -139.8894   309.7353 H6            1 RES     
    9597 H6        -197.4990  -137.6468   310.8731 H6            1 RES     
    9598 H6        -197.9410  -138.7637   309.5317 H6            1 RES     
    9599 H6        -197.6810  -140.7511   310.9618 H6            1 RES     
    9600 H6        -198.9272  -139.6035   311.5596 H6            1 RES     
    9601 H6        -197.3465  -138.7291   313.2742 H6            1 RES     
    9602 H6        -196.0807  -139.9017   312.7108 H6            1 RES     
    9603 H6        -197.6143  -140.5070   313.4281 H6            1 RES     
    9604 H6        -193.2119  -136.0757   305.6685 H6            1 RES     
    9605 H6        -192.5850  -136.2099   307.3400 H6            1 RES     
    9606 H6        -192.4421  -134.1059   306.6605 H6            1 RES     
    9607 H6        -193.6549  -132.9259   306.5681 H6            1 RES     
    9608 H6        -193.0795  -134.2789   309.2614 H6            1 RES     
    9609 H6        -195.0396  -132.7443   309.1051 H6            1 RES     
    9610 H6        -193.8334  -132.3007   310.3544 H6            1 RES     
    9611 H6        -192.9552  -130.4392   308.9830 H6            1 RES     
    9612 H6        -193.9922  -130.9258   307.6238 H6            1 RES     
    9613 H6        -195.0255  -129.0394   308.6104 H6            1 RES     
    9614 H6        -196.0226  -130.4506   309.0332 H6            1 RES     
    9615 H6        -195.0180  -130.4769   311.3380 H6            1 RES     
    9616 H6        -195.8472  -128.9396   310.9377 H6            1 RES     
    9617 H6        -192.7836  -129.3740   310.9519 H6            1 RES     
    9618 H6        -193.7714  -128.5242   312.1793 H6            1 RES     
    9619 H6        -194.4519  -126.8076   310.4802 H6            1 RES     
    9620 H6        -192.6654  -126.8935   310.7087 H6            1 RES     
    9621 H6        -193.4017  -127.6210   309.2480 H6            1 RES     
    9622 H6        -190.8922  -133.8381   308.7426 H6            1 RES     
    9623 H6        -191.3881  -132.4880   309.8067 H6            1 RES     
    9624 H6        -191.5612  -131.0787   307.5583 H6            1 RES     
    9625 H6        -190.8677  -132.4847   306.7407 H6            1 RES     
    9626 H6        -189.2238  -130.7418   307.2600 H6            1 RES     
    9627 H6        -189.6058  -130.8174   309.0162 H6            1 RES     
    9628 H6        -188.3802  -133.1374   307.3626 H6            1 RES     
    9629 H6        -188.7646  -133.1593   309.1234 H6            1 RES     
    9630 H6        -187.1442  -131.3147   309.5447 H6            1 RES     
    9631 H6        -186.4178  -132.8152   308.8650 H6            1 RES     
    9632 H6        -187.0637  -130.2721   307.2391 H6            1 RES     
    9633 H6        -186.3358  -131.7828   306.5831 H6            1 RES     
    9634 H6        -184.6813  -129.9696   306.9806 H6            1 RES     
    9635 H6        -185.1150  -129.9063   308.7258 H6            1 RES     
    9636 H6        -184.2431  -132.2523   309.0116 H6            1 RES     
    9637 H6        -183.0026  -131.1675   308.3077 H6            1 RES     
    9638 H6        -183.8798  -132.3238   307.2371 H6            1 RES     
    9639 C0        -199.7251  -146.0811   302.9181 C0            1 RES     
    9640 C0        -201.1382  -146.6606   302.9914 C0            1 RES     
    9641 C0        -201.9145  -145.9652   303.8568 C0            1 RES     
    9642 S1        -203.4916  -146.5215   303.9280 S1            1 RES     
    9643 C0        -203.1946  -147.7410   302.7763 C0            1 RES     
    9644 C0        -201.8673  -147.6435   302.3251 C0            1 RES     
    9645 C0        -201.1952  -144.8361   304.3364 C0            1 RES     
    9646 C0        -200.0050  -144.8400   303.7797 C0            1 RES     
    9647 C0        -199.3083  -143.5864   304.0007 C0            1 RES     
    9648 C0        -200.0815  -142.7278   304.7673 C0            1 RES     
    9649 S1        -201.6762  -143.4007   305.2778 S1            1 RES     
    9650 H2        -201.4969  -148.2314   301.5126 H2            1 RES     
    9651 H2        -198.3924  -143.2865   303.5213 H2            1 RES     
    9652 N3        -204.5687  -150.8902   301.2324 N3            1 RES     
    9653 C0        -203.7089  -149.9352   301.6883 C0            1 RES     
    9654 C0        -204.1749  -148.7451   302.2826 C0            1 RES     
    9655 C0        -205.5670  -148.5940   302.3949 C0            1 RES     
    9656 N3        -206.1823  -147.5097   302.9378 N3            1 RES     
    9657 S1        -207.7840  -147.8829   302.7645 S1            1 RES     
    9658 N3        -207.7698  -149.3634   302.0326 N3            1 RES     
    9659 C0        -206.4393  -149.6008   301.9015 C0            1 RES     
    9660 C0        -205.9198  -150.7506   301.3212 C0            1 RES     
    9661 H4        -202.6520  -150.1218   301.6155 H4            1 RES     
    9662 C5        -203.8965  -151.5418   295.8324 C5            1 RES     
    9663 C5        -203.6567  -150.1623   296.4479 C5            1 RES     
    9664 C5        -203.0304  -150.2116   297.8528 C5            1 RES     
    9665 C5        -201.6359  -150.8668   297.8987 C5            1 RES     
    9666 C5        -201.0685  -150.8228   299.3282 C5            1 RES     
    9667 C5        -199.7823  -151.6468   299.4825 C5            1 RES     
    9668 C5        -199.2632  -151.6667   300.9400 C5            1 RES     
    9669 C5        -198.4717  -150.3957   301.3794 C5            1 RES     
    9670 C5        -199.0720  -149.5704   302.5591 C5            1 RES     
    9671 C5        -199.2058  -150.4112   303.8622 C5            1 RES     
    9672 C5        -200.2891  -149.8620   304.8091 C5            1 RES     
    9673 C5        -200.7735  -150.9417   305.8006 C5            1 RES     
    9674 C5        -202.0415  -150.4811   306.5420 C5            1 RES     
    9675 C5        -202.7409  -151.6140   307.3146 C5            1 RES     
    9676 C5        -201.9179  -152.1700   308.4714 C5            1 RES     
    9677 C5        -198.2122  -148.2737   302.7130 C5            1 RES     
    9678 C0        -198.5749  -146.9856   303.5480 C0            1 RES     
    9679 C5        -197.2054  -146.1891   303.6850 C5            1 RES     
    9680 C5        -196.5080  -146.3218   305.0802 C5            1 RES     
    9681 C5        -197.0230  -145.2927   306.1400 C5            1 RES     
    9682 C5        -196.5346  -143.8374   305.9493 C5            1 RES     
    9683 C5        -197.1991  -142.8169   306.8912 C5            1 RES     
    9684 C5        -196.7794  -142.9095   308.3707 C5            1 RES     
    9685 C5        -195.2831  -142.6444   308.6442 C5            1 RES     
    9686 C5        -194.8166  -141.2551   308.1970 C5            1 RES     
    9687 C5        -194.9462  -146.3804   304.9988 C5            1 RES     
    9688 C5        -194.2337  -145.3582   304.0759 C5            1 RES     
    9689 C5        -192.6964  -145.3624   304.2350 C5            1 RES     
    9690 C5        -192.0327  -146.7168   303.9215 C5            1 RES     
    9691 C5        -190.4985  -146.6960   304.0761 C5            1 RES     
    9692 C5        -189.7898  -145.8071   303.0357 C5            1 RES     
    9693 C5        -188.2585  -145.7851   303.1914 C5            1 RES     
    9694 C5        -187.5965  -147.1446   302.9615 C5            1 RES     
    9695 H6        -202.9384  -152.0719   295.6577 H6            1 RES     
    9696 H6        -204.4023  -151.4232   294.8505 H6            1 RES     
    9697 H6        -204.5457  -152.1553   296.4925 H6            1 RES     
    9698 H6        -203.0137  -149.5630   295.7688 H6            1 RES     
    9699 H6        -204.6416  -149.6515   296.5317 H6            1 RES     
    9700 H6        -202.9508  -149.1668   298.2242 H6            1 RES     
    9701 H6        -203.7185  -150.7658   298.5289 H6            1 RES     
    9702 H6        -200.9400  -150.3435   297.2072 H6            1 RES     
    9703 H6        -201.7291  -151.9273   297.5836 H6            1 RES     
    9704 H6        -200.9002  -149.7674   299.6315 H6            1 RES     
    9705 H6        -201.8199  -151.2911   299.9938 H6            1 RES     
    9706 H6        -200.0469  -152.6926   299.2096 H6            1 RES     
    9707 H6        -198.9832  -151.3067   298.7892 H6            1 RES     
    9708 H6        -200.1137  -151.9176   301.6055 H6            1 RES     
    9709 H6        -198.5470  -152.5127   301.0130 H6            1 RES     
    9710 H6        -198.3961  -149.7322   300.4887 H6            1 RES     
    9711 H6        -197.4283  -150.6856   301.6303 H6            1 RES     
    9712 H6        -200.0583  -149.3647   302.2076 H6            1 RES     
    9713 H6        -199.5677  -151.4124   303.5719 H6            1 RES     
    9714 H6        -198.2315  -150.5778   304.3706 H6            1 RES     
    9715 H6        -199.9498  -148.9380   305.3233 H6            1 RES     
    9716 H6        -201.1733  -149.6139   304.1854 H6            1 RES     
    9717 H6        -199.9632  -151.2196   306.5081 H6            1 RES     
    9718 H6        -201.0551  -151.8447   305.2143 H6            1 RES     
    9719 H6        -201.8076  -149.6286   307.2143 H6            1 RES     
    9720 H6        -202.7787  -150.1326   305.7842 H6            1 RES     
    9721 H6        -202.9953  -152.4407   306.6142 H6            1 RES     
    9722 H6        -203.6930  -151.2163   307.7284 H6            1 RES     
    9723 H6        -201.6879  -151.3634   309.1983 H6            1 RES     
    9724 H6        -200.9753  -152.6261   308.1065 H6            1 RES     
    9725 H6        -202.5062  -152.9580   308.9890 H6            1 RES     
    9726 H6        -198.0167  -147.8753   301.6925 H6            1 RES     
    9727 H6        -197.2421  -148.6633   303.1010 H6            1 RES     
    9728 H6        -196.5057  -146.5817   302.9175 H6            1 RES     
    9729 H6        -197.2584  -145.1352   303.3789 H6            1 RES     
    9730 H6        -196.7931  -147.3217   305.4809 H6            1 RES     
    9731 H6        -198.1341  -145.3223   306.1329 H6            1 RES     
    9732 H6        -196.6865  -145.6216   307.1465 H6            1 RES     
    9733 H6        -195.4417  -143.7659   306.0862 H6            1 RES     
    9734 H6        -196.7613  -143.5213   304.9206 H6            1 RES     
    9735 H6        -196.9607  -141.7954   306.5271 H6            1 RES     
    9736 H6        -198.2999  -142.9285   306.8221 H6            1 RES     
    9737 H6        -197.0484  -143.9095   308.7697 H6            1 RES     
    9738 H6        -197.3678  -142.1542   308.9369 H6            1 RES     
    9739 H6        -194.6521  -143.4168   308.1587 H6            1 RES     
    9740 H6        -195.1195  -142.7216   309.7407 H6            1 RES     
    9741 H6        -195.4227  -140.4641   308.6878 H6            1 RES     
    9742 H6        -193.7527  -141.1118   308.4814 H6            1 RES     
    9743 H6        -194.8858  -141.1422   307.0957 H6            1 RES     
    9744 H6        -194.6792  -147.3821   304.6003 H6            1 RES     
    9745 H6        -194.5445  -146.3202   306.0339 H6            1 RES     
    9746 H6        -194.5534  -144.3255   304.2753 H6            1 RES     
    9747 H6        -194.4878  -145.5663   303.0173 H6            1 RES     
    9748 H6        -192.3030  -144.5875   303.5453 H6            1 RES     
    9749 H6        -192.4383  -145.0631   305.2748 H6            1 RES     
    9750 H6        -192.2968  -147.0442   302.8928 H6            1 RES     
    9751 H6        -192.4157  -147.4714   304.6398 H6            1 RES     
    9752 H6        -190.2329  -146.3645   305.1041 H6            1 RES     
    9753 H6        -190.1486  -147.7412   303.9471 H6            1 RES     
    9754 H6        -190.1350  -144.7596   303.1486 H6            1 RES     
    9755 H6        -190.0494  -146.1530   302.0113 H6            1 RES     
    9756 H6        -187.8485  -145.0774   302.4380 H6            1 RES     
    9757 H6        -187.9874  -145.4083   304.2013 H6            1 RES     
    9758 H6        -187.9125  -147.8811   303.7274 H6            1 RES     
    9759 H6        -186.4940  -147.0325   303.0355 H6            1 RES     
    9760 H6        -187.8462  -147.5295   301.9503 H6            1 RES     
    9761 C0        -207.7989  -154.3833   298.2214 C0            1 RES     
    9762 C0        -209.2991  -154.5371   298.4737 C0            1 RES     
    9763 C0        -209.6712  -153.9365   299.6295 C0            1 RES     
    9764 S1        -211.3170  -154.0222   299.9223 S1            1 RES     
    9765 C0        -211.6062  -154.8834   298.4812 C0            1 RES     
    9766 C0        -210.3989  -155.0354   297.7781 C0            1 RES     
    9767 C0        -208.5582  -153.2471   300.1849 C0            1 RES     
    9768 C0        -207.5273  -153.4225   299.3893 C0            1 RES     
    9769 C0        -206.4303  -152.5374   299.7341 C0            1 RES     
    9770 C0        -206.7592  -151.7595   300.8339 C0            1 RES     
    9771 S1        -208.3985  -152.0754   301.5189 S1            1 RES     
    9772 H2        -210.3624  -155.4391   296.7888 H2            1 RES     
    9773 H2        -205.5436  -152.3805   299.1444 H2            1 RES     
    9774 N3        -214.1497  -156.9234   296.5948 N3            1 RES     
    9775 C0        -212.9667  -156.4257   297.0554 C0            1 RES     
    9776 C0        -212.9231  -155.3809   298.0005 C0            1 RES     
    9777 C0        -214.1558  -154.8842   298.4556 C0            1 RES     
    9778 N3        -214.2938  -153.8791   299.3610 N3            1 RES     
    9779 S1        -215.9361  -153.7190   299.4707 S1            1 RES     
    9780 N3        -216.5169  -154.8620   298.4294 N3            1 RES     
    9781 C0        -215.3729  -155.4147   297.9502 C0            1 RES     
    9782 C0        -215.3512  -156.4418   297.0158 C0            1 RES     
    9783 H4        -212.0530  -156.8721   296.7049 H4            1 RES     
    9784 C5        -214.4959  -156.1277   291.1834 C5            1 RES     
    9785 C5        -213.7281  -155.1144   292.0337 C5            1 RES     
    9786 C5        -212.9633  -155.7467   293.2101 C5            1 RES     
    9787 C5        -211.8734  -156.7511   292.7863 C5            1 RES     
    9788 C5        -211.1292  -157.2888   294.0209 C5            1 RES     
    9789 C5        -210.1812  -158.4487   293.6846 C5            1 RES     
    9790 C5        -209.4992  -159.0393   294.9417 C5            1 RES     
    9791 C5        -208.2774  -158.2289   295.4759 C5            1 RES     
    9792 C5        -208.3981  -157.6510   296.9197 C5            1 RES     
    9793 C5        -208.6192  -158.7632   297.9861 C5            1 RES     
    9794 C5        -209.3148  -158.2337   299.2541 C5            1 RES     
    9795 C5        -209.9860  -159.3743   300.0488 C5            1 RES     
    9796 C5        -210.9120  -158.8138   301.1434 C5            1 RES     
    9797 C5        -211.8321  -159.8786   301.7672 C5            1 RES     
    9798 C5        -211.0867  -160.9567   302.5461 C5            1 RES     
    9799 C5        -207.1441  -156.7527   297.1744 C5            1 RES     
    9800 C0        -206.9378  -155.7178   298.3468 C0            1 RES     
    9801 C5        -205.3767  -155.4150   298.3540 C5            1 RES     
    9802 C5        -204.5746  -156.1406   299.4856 C5            1 RES     
    9803 C5        -204.5649  -155.3655   300.8443 C5            1 RES     
    9804 C5        -203.6530  -154.1169   300.8939 C5            1 RES     
    9805 C5        -203.8020  -153.2730   302.1728 C5            1 RES     
    9806 C5        -203.2339  -153.9086   303.4561 C5            1 RES     
    9807 C5        -201.7118  -154.1671   303.4396 C5            1 RES     
    9808 C5        -200.8781  -152.8977   303.2360 C5            1 RES     
    9809 C5        -203.1485  -156.6096   299.0431 C5            1 RES     
    9810 C5        -202.2740  -155.6056   298.2483 C5            1 RES     
    9811 C5        -200.8191  -156.0883   298.0516 C5            1 RES     
    9812 C5        -200.6934  -157.4210   297.2892 C5            1 RES     
    9813 C5        -199.2337  -157.8787   297.0947 C5            1 RES     
    9814 C5        -198.4234  -156.9611   296.1585 C5            1 RES     
    9815 C5        -196.9659  -157.4171   295.9659 C5            1 RES     
    9816 C5        -196.8318  -158.7785   295.2819 C5            1 RES     
    9817 H6        -213.8027  -156.8305   290.6785 H6            1 RES     
    9818 H6        -215.0661  -155.5897   290.3962 H6            1 RES     
    9819 H6        -215.2127  -156.6990   291.8107 H6            1 RES     
    9820 H6        -213.0247  -154.5488   291.3865 H6            1 RES     
    9821 H6        -214.4656  -154.3952   292.4542 H6            1 RES     
    9822 H6        -212.4902  -154.9229   293.7874 H6            1 RES     
    9823 H6        -213.6943  -156.2575   293.8751 H6            1 RES     
    9824 H6        -211.1475  -156.2661   292.0977 H6            1 RES     
    9825 H6        -212.3566  -157.6019   292.2616 H6            1 RES     
    9826 H6        -210.5793  -156.4602   294.5164 H6            1 RES     
    9827 H6        -211.8922  -157.7002   294.7104 H6            1 RES     
    9828 H6        -210.8134  -159.2502   293.2419 H6            1 RES     
    9829 H6        -209.4201  -158.1597   292.9283 H6            1 RES     
    9830 H6        -210.2826  -159.2243   295.7042 H6            1 RES     
    9831 H6        -209.1017  -160.0352   294.6518 H6            1 RES     
    9832 H6        -208.1116  -157.3831   294.7714 H6            1 RES     
    9833 H6        -207.3651  -158.8606   295.4105 H6            1 RES     
    9834 H6        -209.2991  -157.0828   296.8575 H6            1 RES     
    9835 H6        -209.3298  -159.4915   297.5592 H6            1 RES     
    9836 H6        -207.6943  -159.3381   298.2086 H6            1 RES     
    9837 H6        -208.6195  -157.6351   299.8798 H6            1 RES     
    9838 H6        -210.1447  -157.5757   298.9212 H6            1 RES     
    9839 H6        -209.2231  -160.0632   300.4707 H6            1 RES     
    9840 H6        -210.6305  -159.9489   299.3468 H6            1 RES     
    9841 H6        -210.3166  -158.2972   301.9257 H6            1 RES     
    9842 H6        -211.5903  -158.0663   300.6740 H6            1 RES     
    9843 H6        -212.4419  -160.3577   300.9688 H6            1 RES     
    9844 H6        -212.5303  -159.3685   302.4659 H6            1 RES     
    9845 H6        -210.5025  -160.4969   303.3703 H6            1 RES     
    9846 H6        -210.4099  -161.5319   301.8820 H6            1 RES     
    9847 H6        -211.8245  -161.6629   302.9842 H6            1 RES     
    9848 H6        -206.9726  -156.1449   296.2582 H6            1 RES     
    9849 H6        -206.3141  -157.4951   297.2320 H6            1 RES     
    9850 H6        -204.9620  -155.7460   297.3787 H6            1 RES     
    9851 H6        -205.1193  -154.3473   298.3225 H6            1 RES     
    9852 H6        -205.1162  -157.0916   299.6952 H6            1 RES     
    9853 H6        -205.6122  -155.0780   301.0810 H6            1 RES     
    9854 H6        -204.2190  -156.0552   301.6438 H6            1 RES     
    9855 H6        -202.5906  -154.3989   300.7939 H6            1 RES     
    9856 H6        -203.9037  -153.4632   300.0457 H6            1 RES     
    9857 H6        -203.2918  -152.2999   302.0133 H6            1 RES     
    9858 H6        -204.8757  -153.0452   302.3294 H6            1 RES     
    9859 H6        -203.7608  -154.8636   303.6605 H6            1 RES     
    9860 H6        -203.4527  -153.2185   304.3006 H6            1 RES     
    9861 H6        -201.4476  -154.9084   302.6579 H6            1 RES     
    9862 H6        -201.4310  -154.6045   304.4220 H6            1 RES     
    9863 H6        -201.1122  -152.1479   304.0215 H6            1 RES     
    9864 H6        -199.7982  -153.1491   303.2989 H6            1 RES     
    9865 H6        -201.0597  -152.4528   302.2363 H6            1 RES     
    9866 H6        -203.2878  -157.4836   298.3720 H6            1 RES     
    9867 H6        -202.6087  -156.9704   299.9457 H6            1 RES     
    9868 H6        -202.2015  -154.6302   298.7502 H6            1 RES     
    9869 H6        -202.7286  -155.4146   297.2557 H6            1 RES     
    9870 H6        -200.2916  -155.2889   297.4915 H6            1 RES     
    9871 H6        -200.3332  -156.1916   299.0469 H6            1 RES     
    9872 H6        -201.1927  -157.3450   296.2991 H6            1 RES     
    9873 H6        -201.2005  -158.2132   297.8786 H6            1 RES     
    9874 H6        -198.7318  -157.9512   298.0846 H6            1 RES     
    9875 H6        -199.2723  -158.8945   296.6497 H6            1 RES     
    9876 H6        -198.3820  -155.9397   296.5877 H6            1 RES     
    9877 H6        -198.9240  -156.9044   295.1673 H6            1 RES     
    9878 H6        -196.4541  -156.6651   295.3263 H6            1 RES     
    9879 H6        -196.4463  -157.4445   296.9482 H6            1 RES     
    9880 H6        -197.2636  -159.5869   295.9055 H6            1 RES     
    9881 H6        -195.7557  -159.0078   295.1297 H6            1 RES     
    9882 H6        -197.3342  -158.7642   294.2918 H6            1 RES     
    9883 C0        -218.7444  -158.3264   293.6585 C0            1 RES     
    9884 C0        -220.1596  -158.1190   294.1992 C0            1 RES     
    9885 C0        -220.1453  -157.8036   295.5166 C0            1 RES     
    9886 S1        -221.6679  -157.5049   296.1442 S1            1 RES     
    9887 C0        -222.4255  -157.7889   294.6451 C0            1 RES     
    9888 C0        -221.4484  -158.0615   293.6726 C0            1 RES     
    9889 C0        -218.8003  -157.6491   295.9522 C0            1 RES     
    9890 C0        -218.0084  -157.8665   294.9264 C0            1 RES     
    9891 C0        -216.6430  -157.4669   295.2123 C0            1 RES     
    9892 C0        -216.5374  -156.9853   296.5083 C0            1 RES     
    9893 S1        -218.0754  -157.0135   297.4517 S1            1 RES     
    9894 H2        -221.6870  -158.1513   292.6343 H2            1 RES     
    9895 H2        -215.8465  -157.4003   294.4913 H2            1 RES     
    9896 N3        -225.7398  -158.3861   292.9574 N3            1 RES     
    9897 C0        -224.4065  -158.3987   293.2428 C0            1 RES     
    9898 C0        -223.8865  -157.7326   294.3709 C0            1 RES     
    9899 C0        -224.8078  -157.0652   295.1951 C0            1 RES     
    9900 N3        -224.4759  -156.3727   296.3173 N3            1 RES     
    9901 S1        -225.9395  -155.7967   296.8284 S1            1 RES     
    9902 N3        -227.0066  -156.3733   295.7073 N3            1 RES     
    9903 C0        -226.1900  -157.0599   294.8673 C0            1 RES     
    9904 C0        -226.6417  -157.7313   293.7387 C0            1 RES     
    9905 H4        -223.7515  -158.9610   292.6011 H4            1 RES     
    9906 C5        -226.5574  -155.9779   288.1026 C5            1 RES     
    9907 C5        -225.3857  -155.5166   288.9706 C5            1 RES     
    9908 C5        -224.7171  -156.6538   289.7633 C5            1 RES     
    9909 C5        -224.0932  -157.7542   288.8825 C5            1 RES     
    9910 C5        -223.4043  -158.8162   289.7569 C5            1 RES     
    9911 C5        -222.9521  -160.0444   288.9545 C5            1 RES     
    9912 C5        -222.3357  -161.1439   289.8519 C5            1 RES     
    9913 C5        -220.8521  -160.9031   290.2713 C5            1 RES     
    9914 C5        -220.5704  -160.7635   291.7991 C5            1 RES     
    9915 C5        -220.9963  -162.0298   292.5979 C5            1 RES     
    9916 C5        -221.2916  -161.7214   294.0776 C5            1 RES     
    9917 C5        -222.1849  -162.8077   294.7141 C5            1 RES     
    9918 C5        -222.7092  -162.3554   296.0890 C5            1 RES     
    9919 C5        -223.8335  -163.2523   296.6376 C5            1 RES     
    9920 C5        -223.3867  -164.6751   296.9546 C5            1 RES     
    9921 C5        -219.0667  -160.3696   291.9674 C5            1 RES     
    9922 C0        -218.3665  -159.8249   293.2716 C0            1 RES     
    9923 C5        -216.8087  -159.9892   292.9974 C5            1 RES     
    9924 C5        -216.1427  -161.2091   293.7176 C5            1 RES     
    9925 C5        -215.6858  -160.9010   295.1817 C5            1 RES     
    9926 C5        -214.4139  -160.0308   295.3147 C5            1 RES     
    9927 C5        -214.0935  -159.5918   296.7551 C5            1 RES     
    9928 C5        -213.5946  -160.7080   297.6925 C5            1 RES     
    9929 C5        -212.2628  -161.3675   297.2737 C5            1 RES     
    9930 C5        -211.0923  -160.3822   297.1898 C5            1 RES     
    9931 C5        -215.0301  -161.9093   292.8683 C5            1 RES     
    9932 C5        -213.9925  -161.0050   292.1540 C5            1 RES     
    9933 C5        -212.8231  -161.7977   291.5274 C5            1 RES     
    9934 C5        -213.2550  -162.8280   290.4667 C5            1 RES     
    9935 C5        -212.0726  -163.5998   289.8470 C5            1 RES     
    9936 C5        -211.1434  -162.7151   288.9933 C5            1 RES     
    9937 C5        -209.9621  -163.4853   288.3763 C5            1 RES     
    9938 C5        -210.3848  -164.5671   287.3811 C5            1 RES     
    9939 H6        -226.2148  -156.6675   287.3047 H6            1 RES     
    9940 H6        -227.0211  -155.0956   287.6121 H6            1 RES     
    9941 H6        -227.3277  -156.4822   288.7240 H6            1 RES     
    9942 H6        -224.6324  -155.0081   288.3321 H6            1 RES     
    9943 H6        -225.7759  -154.7749   289.7024 H6            1 RES     
    9944 H6        -223.9214  -156.2029   290.3952 H6            1 RES     
    9945 H6        -225.4753  -157.1097   290.4377 H6            1 RES     
    9946 H6        -223.3516  -157.3136   288.1808 H6            1 RES     
    9947 H6        -224.8998  -158.2425   288.2962 H6            1 RES     
    9948 H6        -222.5469  -158.3586   290.2953 H6            1 RES     
    9949 H6        -224.1559  -159.1794   290.4849 H6            1 RES     
    9950 H6        -223.8699  -160.4697   288.4909 H6            1 RES     
    9951 H6        -222.2522  -159.7730   288.1351 H6            1 RES     
    9952 H6        -223.0209  -161.3158   290.7064 H6            1 RES     
    9953 H6        -222.3360  -162.0810   289.2556 H6            1 RES     
    9954 H6        -220.5155  -159.9705   289.7650 H6            1 RES     
    9955 H6        -220.2199  -161.7179   289.8563 H6            1 RES     
    9956 H6        -221.2311  -159.9726   292.0759 H6            1 RES     
    9957 H6        -221.9608  -162.3708   292.1841 H6            1 RES     
    9958 H6        -220.2932  -162.8805   292.4657 H6            1 RES     
    9959 H6        -220.3566  -161.5529   294.6526 H6            1 RES     
    9960 H6        -221.8941  -160.7893   294.1034 H6            1 RES     
    9961 H6        -221.6428  -163.7753   294.7804 H6            1 RES     
    9962 H6        -223.0753  -162.9461   294.0611 H6            1 RES     
    9963 H6        -221.8727  -162.2795   296.8154 H6            1 RES     
    9964 H6        -223.1596  -161.3440   295.9724 H6            1 RES     
    9965 H6        -224.6733  -163.2851   295.9079 H6            1 RES     
    9966 H6        -224.2175  -162.7942   297.5749 H6            1 RES     
    9967 H6        -222.5736  -164.6604   297.7100 H6            1 RES     
    9968 H6        -223.0395  -165.1968   296.0397 H6            1 RES     
    9969 H6        -224.2479  -165.2414   297.3703 H6            1 RES     
    9970 H6        -218.8335  -159.5943   291.2040 H6            1 RES     
    9971 H6        -218.5309  -161.2984   291.6614 H6            1 RES     
    9972 H6        -216.6685  -160.1230   291.9041 H6            1 RES     
    9973 H6        -216.2187  -159.0765   293.1590 H6            1 RES     
    9974 H6        -216.9342  -161.9873   293.8158 H6            1 RES     
    9975 H6        -216.5342  -160.4130   295.7086 H6            1 RES     
    9976 H6        -215.4800  -161.8625   295.6989 H6            1 RES     
    9977 H6        -213.5304  -160.5580   294.9150 H6            1 RES     
    9978 H6        -214.5497  -159.1146   294.7216 H6            1 RES     
    9979 H6        -213.3169  -158.7993   296.7166 H6            1 RES     
    9980 H6        -214.9975  -159.1276   297.1983 H6            1 RES     
    9981 H6        -214.3743  -161.4925   297.7816 H6            1 RES     
    9982 H6        -213.4512  -160.2630   298.7018 H6            1 RES     
    9983 H6        -212.3719  -161.8905   296.3017 H6            1 RES     
    9984 H6        -212.0083  -162.1337   298.0375 H6            1 RES     
    9985 H6        -210.9517  -159.8609   298.1606 H6            1 RES     
    9986 H6        -210.1596  -160.9340   296.9473 H6            1 RES     
    9987 H6        -211.2542  -159.6319   296.3889 H6            1 RES     
    9988 H6        -215.5442  -162.4725   292.0608 H6            1 RES     
    9989 H6        -214.5197  -162.6549   293.5162 H6            1 RES     
    9990 H6        -213.5308  -160.2808   292.8402 H6            1 RES     
    9991 H6        -214.4923  -160.4121   291.3621 H6            1 RES     
    9992 H6        -212.1443  -161.0515   291.0655 H6            1 RES     
    9993 H6        -212.2646  -162.3200   292.3352 H6            1 RES     
    9994 H6        -213.8344  -162.3284   289.6604 H6            1 RES     
    9995 H6        -213.9084  -163.5819   290.9534 H6            1 RES     
    9996 H6        -211.4897  -164.0969   290.6534 H6            1 RES     
    9997 H6        -212.5082  -164.3871   289.1976 H6            1 RES     
    9998 H6        -210.7056  -161.9188   289.6285 H6            1 RES     
    9999 H6        -211.7306  -162.2324   288.1817 H6            1 RES     
   10000 H6        -209.3249  -162.7548   287.8316 H6            1 RES     
   10001 H6        -209.3488  -163.9439   289.1820 H6            1 RES     
   10002 H6        -210.9685  -165.3670   287.8794 H6            1 RES     
   10003 H6        -209.4785  -165.0347   286.9412 H6            1 RES     
   10004 H6        -210.9875  -164.1230   286.5611 H6            1 RES     
   10005 C0        -230.9033  -157.5171   290.8873 C0            1 RES     
   10006 C0        -232.0787  -157.0878   291.7660 C0            1 RES     
   10007 C0        -231.7760  -157.1891   293.0825 C0            1 RES     
   10008 S1        -233.0092  -156.6716   294.0890 S1            1 RES     
   10009 C0        -234.0204  -156.2795   292.7753 C0            1 RES     
   10010 C0        -233.3358  -156.5188   291.5716 C0            1 RES     
   10011 C0        -230.4090  -157.5536   293.2277 C0            1 RES     
   10012 C0        -229.8862  -157.6748   292.0282 C0            1 RES     
   10013 C0        -228.4398  -157.7771   292.0844 C0            1 RES     
   10014 C0        -227.9998  -157.7460   293.3989 C0            1 RES     
   10015 S1        -229.3116  -157.6153   294.6311 S1            1 RES     
   10016 H2        -233.7338  -156.2300   290.6223 H2            1 RES     
   10017 H2        -227.7758  -157.7293   291.2385 H2            1 RES     
   10018 N3        -237.5469  -155.3994   291.7860 N3            1 RES     
   10019 C0        -236.2673  -155.8694   291.7527 C0            1 RES     
   10020 C0        -235.4031  -155.7370   292.8582 C0            1 RES     
   10021 C0        -235.9254  -155.1091   294.0011 C0            1 RES     
   10022 N3        -235.2286  -154.8979   295.1496 N3            1 RES     
   10023 S1        -236.3310  -154.1096   296.0973 S1            1 RES     
   10024 N3        -237.6750  -154.0084   295.1426 N3            1 RES     
   10025 C0        -237.2590  -154.6197   294.0037 C0            1 RES     
   10026 C0        -238.0614  -154.7760   292.8811 C0            1 RES     
   10027 H4        -235.9329  -156.3798   290.8668 H4            1 RES     
   10028 C5        -238.1910  -151.5480   287.9405 C5            1 RES     
   10029 C5        -236.8232  -151.7099   288.6053 C5            1 RES     
   10030 C5        -236.4658  -153.1692   288.9390 C5            1 RES     
   10031 C5        -236.3725  -154.0925   287.7082 C5            1 RES     
   10032 C5        -235.9598  -155.5127   288.1322 C5            1 RES     
   10033 C5        -236.0581  -156.5276   286.9844 C5            1 RES     
   10034 C5        -235.7222  -157.9684   287.4376 C5            1 RES     
   10035 C5        -234.1995  -158.2882   287.5563 C5            1 RES     
   10036 C5        -233.6762  -158.6869   288.9707 C5            1 RES     
   10037 C5        -234.3818  -159.9583   289.5264 C5            1 RES     
   10038 C5        -234.3474  -160.0263   291.0646 C5            1 RES     
   10039 C5        -235.4520  -160.9543   291.6142 C5            1 RES     
   10040 C5        -235.5982  -160.7957   293.1384 C5            1 RES     
   10041 C5        -236.8678  -161.4599   293.7011 C5            1 RES     
   10042 C5        -236.8788  -162.9787   293.5681 C5            1 RES     
   10043 C5        -232.1192  -158.7990   288.8831 C5            1 RES     
   10044 C0        -231.1024  -158.8797   290.0862 C0            1 RES     
   10045 C5        -229.7422  -159.3877   289.4375 C5            1 RES     
   10046 C5        -229.4247  -160.9007   289.6838 C5            1 RES     
   10047 C5        -228.6910  -161.1760   291.0377 C5            1 RES     
   10048 C5        -227.1971  -160.7772   291.0803 C5            1 RES     
   10049 C5        -226.5505  -160.8876   292.4731 C5            1 RES     
   10050 C5        -226.3242  -162.3224   292.9867 C5            1 RES     
   10051 C5        -225.3594  -163.1770   292.1365 C5            1 RES     
   10052 C5        -223.9523  -162.5811   292.0236 C5            1 RES     
   10053 C5        -228.7384  -161.6049   288.4663 C5            1 RES     
   10054 C5        -227.5705  -160.8611   287.7682 C5            1 RES     
   10055 C5        -226.8305  -161.7311   286.7269 C5            1 RES     
   10056 C5        -227.7241  -162.2409   285.5803 C5            1 RES     
   10057 C5        -226.9642  -163.0975   284.5475 C5            1 RES     
   10058 C5        -225.9235  -162.3003   283.7373 C5            1 RES     
   10059 C5        -225.1637  -163.1559   282.7077 C5            1 RES     
   10060 C5        -226.0565  -163.7345   281.6089 C5            1 RES     
   10061 H6        -238.2121  -152.0410   286.9475 H6            1 RES     
   10062 H6        -238.3995  -150.4677   287.7870 H6            1 RES     
   10063 H6        -238.9898  -151.9740   288.5840 H6            1 RES     
   10064 H6        -236.0413  -151.2700   287.9504 H6            1 RES     
   10065 H6        -236.8385  -151.1364   289.5587 H6            1 RES     
   10066 H6        -235.4853  -153.1657   289.4627 H6            1 RES     
   10067 H6        -237.2299  -153.5700   289.6412 H6            1 RES     
   10068 H6        -235.6329  -153.6930   286.9804 H6            1 RES     
   10069 H6        -237.3693  -154.1404   287.2213 H6            1 RES     
   10070 H6        -234.9326  -155.4931   288.5551 H6            1 RES     
   10071 H6        -236.6794  -155.8464   288.9053 H6            1 RES     
   10072 H6        -237.1204  -156.5225   286.6533 H6            1 RES     
   10073 H6        -235.4300  -156.2366   286.1151 H6            1 RES     
   10074 H6        -236.2986  -158.1829   288.3601 H6            1 RES     
   10075 H6        -236.1172  -158.6503   286.6548 H6            1 RES     
   10076 H6        -233.6469  -157.3824   287.2195 H6            1 RES     
   10077 H6        -233.9383  -159.0892   286.8311 H6            1 RES     
   10078 H6        -233.9912  -157.8594   289.5660 H6            1 RES     
   10079 H6        -235.4526  -159.8776   289.2726 H6            1 RES     
   10080 H6        -234.0267  -160.8948   289.0443 H6            1 RES     
   10081 H6        -233.3387  -160.3035   291.4372 H6            1 RES     
   10082 H6        -234.5965  -159.0126   291.4424 H6            1 RES     
   10083 H6        -235.2581  -162.0104   291.3288 H6            1 RES     
   10084 H6        -236.4201  -160.6393   291.1648 H6            1 RES     
   10085 H6        -234.6908  -161.1742   293.6548 H6            1 RES     
   10086 H6        -235.6991  -159.7107   293.3658 H6            1 RES     
   10087 H6        -237.7644  -161.0402   293.1925 H6            1 RES     
   10088 H6        -236.9425  -161.2076   294.7812 H6            1 RES     
   10089 H6        -236.0095  -163.4149   294.1029 H6            1 RES     
   10090 H6        -236.8563  -163.2854   292.5026 H6            1 RES     
   10091 H6        -237.8118  -163.3756   294.0230 H6            1 RES     
   10092 H6        -231.7513  -157.9326   288.2895 H6            1 RES     
   10093 H6        -231.9705  -159.7090   288.2561 H6            1 RES     
   10094 H6        -229.8090  -159.2295   288.3406 H6            1 RES     
   10095 H6        -228.8662  -158.7668   289.6706 H6            1 RES     
   10096 H6        -230.4076  -161.4181   289.7733 H6            1 RES     
   10097 H6        -229.2466  -160.6456   291.8413 H6            1 RES     
   10098 H6        -228.7457  -162.2640   291.2561 H6            1 RES     
   10099 H6        -226.6040  -161.3905   290.3800 H6            1 RES     
   10100 H6        -227.1029  -159.7282   290.7638 H6            1 RES     
   10101 H6        -225.5685  -160.3704   292.4468 H6            1 RES     
   10102 H6        -227.1776  -160.3388   293.2044 H6            1 RES     
   10103 H6        -227.2994  -162.8462   293.0634 H6            1 RES     
   10104 H6        -225.9012  -162.2513   294.0131 H6            1 RES     
   10105 H6        -225.7711  -163.3399   291.1195 H6            1 RES     
   10106 H6        -225.2692  -164.1724   292.6227 H6            1 RES     
   10107 H6        -223.5120  -162.4283   293.0320 H6            1 RES     
   10108 H6        -223.2994  -163.2767   291.4552 H6            1 RES     
   10109 H6        -223.9666  -161.6155   291.4778 H6            1 RES     
   10110 H6        -229.5181  -161.7388   287.6868 H6            1 RES     
   10111 H6        -228.4189  -162.6195   288.7901 H6            1 RES     
   10112 H6        -226.8032  -160.5299   288.4823 H6            1 RES     
   10113 H6        -227.9510  -159.9470   287.2701 H6            1 RES     
   10114 H6        -226.0144  -161.1048   286.3114 H6            1 RES     
   10115 H6        -226.3696  -162.6020   287.2432 H6            1 RES     
   10116 H6        -228.2118  -161.3854   285.0648 H6            1 RES     
   10117 H6        -228.5156  -162.8886   286.0118 H6            1 RES     
   10118 H6        -226.4723  -163.9516   285.0629 H6            1 RES     
   10119 H6        -227.7229  -163.5045   283.8474 H6            1 RES     
   10120 H6        -225.1617  -161.8815   284.4255 H6            1 RES     
   10121 H6        -226.4248  -161.4566   283.2146 H6            1 RES     
   10122 H6        -224.4031  -162.5080   282.2195 H6            1 RES     
   10123 H6        -224.6308  -163.9833   283.2245 H6            1 RES     
   10124 H6        -226.7967  -164.4472   282.0249 H6            1 RES     
   10125 H6        -225.4279  -164.2880   280.8794 H6            1 RES     
   10126 H6        -226.5863  -162.9192   281.0727 H6            1 RES     
   10127 C0        -242.3655  -152.5476   291.1940 C0            1 RES     
   10128 C0        -243.1963  -152.0818   292.3902 C0            1 RES     
   10129 C0        -242.7629  -152.6448   293.5436 C0            1 RES     
   10130 S1        -243.6004  -152.1195   294.8943 S1            1 RES     
   10131 C0        -244.5977  -151.0924   293.9711 C0            1 RES     
   10132 C0        -244.2073  -151.1514   292.6224 C0            1 RES     
   10133 C0        -241.5883  -153.4047   293.2879 C0            1 RES     
   10134 C0        -241.3091  -153.3115   292.0073 C0            1 RES     
   10135 C0        -239.9859  -153.8282   291.7106 C0            1 RES     
   10136 C0        -239.3808  -154.3081   292.8623 C0            1 RES     
   10137 S1        -240.3884  -154.1804   294.3538 S1            1 RES     
   10138 H2        -244.6158  -150.4977   291.8816 H2            1 RES     
   10139 H2        -239.4692  -153.7237   290.7722 H2            1 RES     
   10140 N3        -247.7340  -149.0069   294.0352 N3            1 RES     
   10141 C0        -246.7010  -149.7865   293.6057 C0            1 RES     
   10142 C0        -245.6959  -150.2320   294.4876 C0            1 RES     
   10143 C0        -245.8144  -149.8458   295.8330 C0            1 RES     
   10144 N3        -244.9334  -150.1848   296.8118 N3            1 RES     
   10145 S1        -245.5672  -149.4316   298.1406 S1            1 RES     
   10146 N3        -246.9212  -148.6818   297.5640 N3            1 RES     
   10147 C0        -246.8957  -149.0243   296.2502 C0            1 RES     
   10148 C0        -247.8535  -148.6130   295.3326 C0            1 RES     
   10149 H4        -246.6827  -150.0878   292.5733 H4            1 RES     
   10150 C5        -247.5958  -144.1805   291.4424 C5            1 RES     
   10151 C5        -246.2803  -144.9076   291.7253 C5            1 RES     
   10152 C5        -246.3845  -146.4394   291.6196 C5            1 RES     
   10153 C5        -246.7765  -146.9494   290.2188 C5            1 RES     
   10154 C5        -246.8034  -148.4875   290.1951 C5            1 RES     
   10155 C5        -247.3929  -149.0516   288.8946 C5            1 RES     
   10156 C5        -247.4942  -150.5955   288.9112 C5            1 RES     
   10157 C5        -246.1632  -151.3507   288.6057 C5            1 RES     
   10158 C5        -245.6091  -152.2761   289.7325 C5            1 RES     
   10159 C5        -246.6114  -153.4023   290.1202 C5            1 RES     
   10160 C5        -246.3862  -153.9242   291.5515 C5            1 RES     
   10161 C5        -247.6476  -154.6225   292.1035 C5            1 RES     
   10162 C5        -247.5176  -154.8826   293.6152 C5            1 RES     
   10163 C5        -248.8434  -155.2972   294.2783 C5            1 RES     
   10164 C5        -249.3765  -156.6433   293.8002 C5            1 RES     
   10165 C5        -244.2062  -152.7907   289.2728 C5            1 RES     
   10166 C0        -243.1157  -153.5025   290.1629 C0            1 RES     
   10167 C5        -242.1065  -154.1594   289.1243 C5            1 RES     
   10168 C5        -242.2779  -155.7035   288.9324 C5            1 RES     
   10169 C5        -241.4951  -156.5576   289.9834 C5            1 RES     
   10170 C5        -239.9631  -156.6258   289.7803 C5            1 RES     
   10171 C5        -239.2014  -157.3160   290.9263 C5            1 RES     
   10172 C5        -239.3944  -158.8413   291.0260 C5            1 RES     
   10173 C5        -238.8973  -159.6449   289.8049 C5            1 RES     
   10174 C5        -237.4027  -159.4628   289.5204 C5            1 RES     
   10175 C5        -242.0421  -156.1838   287.4617 C5            1 RES     
   10176 C5        -240.8037  -155.6282   286.7119 C5            1 RES     
   10177 C5        -240.5482  -156.3267   285.3571 C5            1 RES     
   10178 C5        -241.7117  -156.2058   284.3548 C5            1 RES     
   10179 C5        -241.4319  -156.9001   283.0066 C5            1 RES     
   10180 C5        -240.3101  -156.2271   282.1920 C5            1 RES     
   10181 C5        -240.0297  -156.9214   280.8471 C5            1 RES     
   10182 C5        -241.2086  -156.8776   279.8738 C5            1 RES     
   10183 H6        -247.9183  -144.3346   290.3928 H6            1 RES     
   10184 H6        -247.4532  -143.0896   291.5966 H6            1 RES     
   10185 H6        -248.3921  -144.5336   292.1316 H6            1 RES     
   10186 H6        -245.4968  -144.5339   291.0325 H6            1 RES     
   10187 H6        -245.9705  -144.6582   292.7645 H6            1 RES     
   10188 H6        -245.3952  -146.8653   291.8950 H6            1 RES     
   10189 H6        -247.1318  -146.7964   292.3623 H6            1 RES     
   10190 H6        -246.0560  -146.5793   289.4570 H6            1 RES     
   10191 H6        -247.7904  -146.5704   289.9716 H6            1 RES     
   10192 H6        -245.7794  -148.8822   290.3684 H6            1 RES     
   10193 H6        -247.4770  -148.8163   291.0106 H6            1 RES     
   10194 H6        -248.4285  -148.6513   288.8219 H6            1 RES     
   10195 H6        -246.8323  -148.7078   287.9988 H6            1 RES     
   10196 H6        -247.9737  -150.8993   289.8635 H6            1 RES     
   10197 H6        -248.1987  -150.8786   288.1004 H6            1 RES     
   10198 H6        -245.3944  -150.5796   288.3742 H6            1 RES     
   10199 H6        -246.2871  -151.9439   287.6739 H6            1 RES     
   10200 H6        -245.5448  -151.6054   290.5599 H6            1 RES     
   10201 H6        -247.6191  -152.9531   290.1402 H6            1 RES     
   10202 H6        -246.6586  -154.2169   289.3655 H6            1 RES     
   10203 H6        -245.4850  -154.5703   291.6120 H6            1 RES     
   10204 H6        -246.2291  -153.0382   292.2018 H6            1 RES     
   10205 H6        -247.8572  -155.5588   291.5432 H6            1 RES     
   10206 H6        -248.5091  -153.9310   291.9700 H6            1 RES     
   10207 H6        -246.7244  -155.6348   293.8109 H6            1 RES     
   10208 H6        -247.2197  -153.9290   294.1064 H6            1 RES     
   10209 H6        -249.6118  -154.5127   294.0972 H6            1 RES     
   10210 H6        -248.6780  -155.3617   295.3757 H6            1 RES     
   10211 H6        -248.6353  -157.4429   294.0084 H6            1 RES     
   10212 H6        -249.6066  -156.6182   292.7157 H6            1 RES     
   10213 H6        -250.3148  -156.8769   294.3480 H6            1 RES     
   10214 H6        -243.6587  -151.9286   288.8308 H6            1 RES     
   10215 H6        -244.4574  -153.4808   288.4336 H6            1 RES     
   10216 H6        -242.2701  -153.6750   288.1387 H6            1 RES     
   10217 H6        -241.0505  -153.9064   289.2924 H6            1 RES     
   10218 H6        -243.3540  -155.9262   289.1175 H6            1 RES     
   10219 H6        -241.7246  -156.1518   290.9925 H6            1 RES     
   10220 H6        -241.8765  -157.6005   289.9482 H6            1 RES     
   10221 H6        -239.7116  -157.1481   288.8411 H6            1 RES     
   10222 H6        -239.5714  -155.6008   289.7047 H6            1 RES     
   10223 H6        -238.1173  -157.1118   290.8010 H6            1 RES     
   10224 H6        -239.5017  -156.8521   291.8874 H6            1 RES     
   10225 H6        -240.4673  -159.0682   291.1959 H6            1 RES     
   10226 H6        -238.8323  -159.1956   291.9182 H6            1 RES     
   10227 H6        -239.4780  -159.3804   288.8977 H6            1 RES     
   10228 H6        -239.0753  -160.7222   290.0120 H6            1 RES     
   10229 H6        -236.7999  -159.7421   290.4106 H6            1 RES     
   10230 H6        -237.1042  -160.1159   288.6732 H6            1 RES     
   10231 H6        -237.1721  -158.4166   289.2328 H6            1 RES     
   10232 H6        -242.9232  -155.8588   286.8687 H6            1 RES     
   10233 H6        -242.0354  -157.2957   287.4590 H6            1 RES     
   10234 H6        -239.8779  -155.7502   287.2920 H6            1 RES     
   10235 H6        -240.9250  -154.5400   286.5400 H6            1 RES     
   10236 H6        -239.6373  -155.8622   284.9265 H6            1 RES     
   10237 H6        -240.3349  -157.4033   285.5383 H6            1 RES     
   10238 H6        -241.9550  -155.1359   284.1769 H6            1 RES     
   10239 H6        -242.6045  -156.7015   284.7899 H6            1 RES     
   10240 H6        -241.1843  -157.9699   283.1838 H6            1 RES     
   10241 H6        -242.3729  -156.8539   282.4203 H6            1 RES     
   10242 H6        -239.3640  -156.2599   282.7691 H6            1 RES     
   10243 H6        -240.5710  -155.1620   282.0075 H6            1 RES     
   10244 H6        -239.1736  -156.4003   280.3654 H6            1 RES     
   10245 H6        -239.7347  -157.9787   281.0227 H6            1 RES     
   10246 H6        -242.0773  -157.4426   280.2676 H6            1 RES     
   10247 H6        -240.9083  -157.3467   278.9129 H6            1 RES     
   10248 H6        -241.5074  -155.8266   279.6764 H6            1 RES     
   10249 C0        -251.3654  -144.8723   295.2268 C0            1 RES     
   10250 C0        -251.8181  -144.5630   296.6542 C0            1 RES     
   10251 C0        -251.4390  -145.5369   297.5161 C0            1 RES     
   10252 S1        -251.8566  -145.2166   299.1051 S1            1 RES     
   10253 C0        -252.5754  -143.7273   298.6964 C0            1 RES     
   10254 C0        -252.4199  -143.4964   297.3189 C0            1 RES     
   10255 C0        -250.6314  -146.4869   296.8321 C0            1 RES     
   10256 C0        -250.5195  -146.1055   295.5797 C0            1 RES     
   10257 C0        -249.4983  -146.8630   294.8804 C0            1 RES     
   10258 C0        -248.9316  -147.8088   295.7213 C0            1 RES     
   10259 S1        -249.6200  -147.8452   297.3889 S1            1 RES     
   10260 H2        -252.6878  -142.5673   296.8629 H2            1 RES     
   10261 H2        -249.1132  -146.6381   293.9007 H2            1 RES     
   10262 N3        -254.7999  -140.9581   299.9506 N3            1 RES     
   10263 C0        -254.1552  -141.8354   299.1296 C0            1 RES     
   10264 C0        -253.2418  -142.7833   299.6333 C0            1 RES     
   10265 C0        -253.0356  -142.7907   301.0228 C0            1 RES     
   10266 N3        -252.1890  -143.6347   301.6709 N3            1 RES     
   10267 S1        -252.3440  -143.1569   303.2465 S1            1 RES     
   10268 N3        -253.4390  -141.9222   303.1812 N3            1 RES     
   10269 C0        -253.7131  -141.8579   301.8528 C0            1 RES     
   10270 C0        -254.5987  -140.9441   301.2967 C0            1 RES     
   10271 H4        -254.3829  -141.8138   298.0784 H4            1 RES     
   10272 C5        -253.4326  -135.8272   298.5941 C5            1 RES     
   10273 C5        -252.4071  -136.9444   298.3956 C5            1 RES     
   10274 C5        -253.0275  -138.2842   297.9613 C5            1 RES     
   10275 C5        -253.7589  -138.2302   296.6055 C5            1 RES     
   10276 C5        -254.2978  -139.6214   296.2299 C5            1 RES     
   10277 C5        -255.2172  -139.5906   295.0008 C5            1 RES     
   10278 C5        -255.8218  -140.9780   294.6787 C5            1 RES     
   10279 C5        -254.8738  -141.9531   293.9136 C5            1 RES     
   10280 C5        -254.5060  -143.2844   294.6385 C5            1 RES     
   10281 C5        -255.7604  -144.1453   294.9679 C5            1 RES     
   10282 C5        -255.5229  -145.1045   296.1492 C5            1 RES     
   10283 C5        -256.8539  -145.5496   296.7924 C5            1 RES     
   10284 C5        -256.6071  -146.2661   298.1323 C5            1 RES     
   10285 C5        -257.8885  -146.4663   298.9613 C5            1 RES     
   10286 C5        -258.8995  -147.4068   298.3148 C5            1 RES     
   10287 C5        -253.4326  -144.0147   293.7674 C5            1 RES     
   10288 C0        -252.5268  -145.2323   294.1974 C0            1 RES     
   10289 C5        -251.9490  -145.8126   292.8343 C5            1 RES     
   10290 C5        -252.6483  -147.1194   292.3308 C5            1 RES     
   10291 C5        -252.0541  -148.4278   292.9491 C5            1 RES     
   10292 C5        -250.6762  -148.8614   292.3960 C5            1 RES     
   10293 C5        -250.0340  -150.0418   293.1472 C5            1 RES     
   10294 C5        -250.7063  -151.4107   292.9287 C5            1 RES     
   10295 C5        -250.6805  -151.9276   291.4740 C5            1 RES     
   10296 C5        -249.2658  -152.0982   290.9107 C5            1 RES     
   10297 C5        -252.7939  -147.1944   290.7743 C5            1 RES     
   10298 C5        -251.5594  -146.8154   289.9159 C5            1 RES     
   10299 C5        -251.7428  -147.1292   288.4138 C5            1 RES     
   10300 C5        -252.9287  -146.3982   287.7560 C5            1 RES     
   10301 C5        -253.0871  -146.7169   286.2556 C5            1 RES     
   10302 C5        -251.9315  -146.1789   285.3895 C5            1 RES     
   10303 C5        -252.0889  -146.4988   283.8921 C5            1 RES     
   10304 C5        -253.3106  -145.8424   283.2472 C5            1 RES     
   10305 H6        -253.9318  -135.5702   297.6380 H6            1 RES     
   10306 H6        -252.9159  -134.9154   298.9626 H6            1 RES     
   10307 H6        -254.1960  -136.1277   299.3429 H6            1 RES     
   10308 H6        -251.6493  -136.6204   297.6510 H6            1 RES     
   10309 H6        -251.8897  -137.1077   299.3670 H6            1 RES     
   10310 H6        -252.2075  -139.0321   297.8995 H6            1 RES     
   10311 H6        -253.7390  -138.6177   298.7488 H6            1 RES     
   10312 H6        -253.0708  -137.8716   295.8091 H6            1 RES     
   10313 H6        -254.6136  -137.5263   296.6886 H6            1 RES     
   10314 H6        -253.4493  -140.3208   296.0710 H6            1 RES     
   10315 H6        -254.9210  -139.9711   297.0762 H6            1 RES     
   10316 H6        -256.0607  -138.9123   295.2589 H6            1 RES     
   10317 H6        -254.7058  -139.1719   294.1075 H6            1 RES     
   10318 H6        -256.2365  -141.3995   295.6166 H6            1 RES     
   10319 H6        -256.6867  -140.8013   294.0044 H6            1 RES     
   10320 H6        -253.9331  -141.3968   293.7015 H6            1 RES     
   10321 H6        -255.3169  -142.1878   292.9215 H6            1 RES     
   10322 H6        -254.1074  -142.9316   295.5632 H6            1 RES     
   10323 H6        -256.5485  -143.4573   295.3188 H6            1 RES     
   10324 H6        -256.1806  -144.6557   294.0745 H6            1 RES     
   10325 H6        -254.8881  -145.9661   295.8525 H6            1 RES     
   10326 H6        -254.9911  -144.5292   296.9358 H6            1 RES     
   10327 H6        -257.4388  -146.1823   296.0910 H6            1 RES     
   10328 H6        -257.4468  -144.6362   297.0217 H6            1 RES     
   10329 H6        -256.0893  -147.2339   297.9630 H6            1 RES     
   10330 H6        -255.9438  -145.6222   298.7525 H6            1 RES     
   10331 H6        -258.3702  -145.4802   299.1463 H6            1 RES     
   10332 H6        -257.6016  -146.8929   299.9470 H6            1 RES     
   10333 H6        -258.4443  -148.4069   298.1580 H6            1 RES     
   10334 H6        -259.2579  -147.0017   297.3467 H6            1 RES     
   10335 H6        -259.7755  -147.5167   298.9898 H6            1 RES     
   10336 H6        -252.6977  -143.2514   293.4274 H6            1 RES     
   10337 H6        -254.0136  -144.3292   292.8691 H6            1 RES     
   10338 H6        -252.0790  -145.0354   292.0520 H6            1 RES     
   10339 H6        -250.8564  -145.9275   292.8145 H6            1 RES     
   10340 H6        -253.7000  -147.0746   292.6963 H6            1 RES     
   10341 H6        -251.9921  -148.2876   294.0501 H6            1 RES     
   10342 H6        -252.7611  -149.2633   292.7581 H6            1 RES     
   10343 H6        -250.7466  -149.1347   291.3289 H6            1 RES     
   10344 H6        -249.9812  -148.0127   292.4756 H6            1 RES     
   10345 H6        -248.9725  -150.1233   292.8321 H6            1 RES     
   10346 H6        -250.0254  -149.8146   294.2323 H6            1 RES     
   10347 H6        -251.7586  -151.3661   293.2781 H6            1 RES     
   10348 H6        -250.1745  -152.1536   293.5632 H6            1 RES     
   10349 H6        -251.2616  -151.2571   290.8084 H6            1 RES     
   10350 H6        -251.1751  -152.9227   291.4584 H6            1 RES     
   10351 H6        -248.6713  -152.7835   291.5518 H6            1 RES     
   10352 H6        -249.3229  -152.5311   289.8896 H6            1 RES     
   10353 H6        -248.7438  -151.1227   290.8311 H6            1 RES     
   10354 H6        -253.5911  -146.4761   290.4878 H6            1 RES     
   10355 H6        -253.1571  -148.2117   290.5106 H6            1 RES     
   10356 H6        -250.6549  -147.3569   290.2276 H6            1 RES     
   10357 H6        -251.3355  -145.7364   290.0348 H6            1 RES     
   10358 H6        -250.7993  -146.8348   287.9097 H6            1 RES     
   10359 H6        -251.8758  -148.2261   288.2856 H6            1 RES     
   10360 H6        -252.8254  -145.2999   287.8924 H6            1 RES     
   10361 H6        -253.8650  -146.7275   288.2529 H6            1 RES     
   10362 H6        -253.1864  -147.8161   286.1176 H6            1 RES     
   10363 H6        -254.0317  -146.2385   285.9237 H6            1 RES     
   10364 H6        -250.9789  -146.6438   285.7146 H6            1 RES     
   10365 H6        -251.8472  -145.0781   285.5226 H6            1 RES     
   10366 H6        -251.1849  -146.1222   283.3653 H6            1 RES     
   10367 H6        -252.1400  -147.5993   283.7448 H6            1 RES     
   10368 H6        -254.2533  -146.2297   283.6834 H6            1 RES     
   10369 H6        -253.3208  -146.0744   282.1611 H6            1 RES     
   10370 H6        -253.2682  -144.7400   283.3733 H6            1 RES     
   10371 C0        -256.6481  -136.5069   302.8614 C0            1 RES     
   10372 C0        -256.7676  -136.5146   304.3857 C0            1 RES     
   10373 C0        -256.6163  -137.7636   304.8881 C0            1 RES     
   10374 S1        -256.6768  -137.8184   306.5600 S1            1 RES     
   10375 C0        -256.9103  -136.1354   306.6831 C0            1 RES     
   10376 C0        -256.8817  -135.5651   305.3991 C0            1 RES     
   10377 C0        -256.2741  -138.6588   303.8374 C0            1 RES     
   10378 C0        -256.2188  -137.9751   302.7166 C0            1 RES     
   10379 C0        -255.6156  -138.7499   301.6481 C0            1 RES     
   10380 C0        -255.2830  -140.0198   302.0950 C0            1 RES     
   10381 S1        -255.7035  -140.3475   303.8189 S1            1 RES     
   10382 H2        -256.8872  -134.5071   305.2451 H2            1 RES     
   10383 H2        -255.3191  -138.3661   300.6872 H2            1 RES     
   10384 N3        -257.8905  -133.3461   309.0173 N3            1 RES     
   10385 C0        -257.6954  -134.0889   307.8906 C0            1 RES     
   10386 C0        -257.0873  -135.3595   307.9399 C0            1 RES     
   10387 C0        -256.7026  -135.8309   309.2061 C0            1 RES     
   10388 N3        -256.1021  -137.0299   309.4313 N3            1 RES     
   10389 S1        -255.8671  -137.0108   311.0682 S1            1 RES     
   10390 N3        -256.4880  -135.5553   311.5415 N3            1 RES     
   10391 C0        -256.9086  -135.0307   310.3617 C0            1 RES     
   10392 C0        -257.5094  -133.7838   310.2485 C0            1 RES     
   10393 H4        -258.0479  -133.6976   306.9527 H4            1 RES     
   10394 C5        -255.1022  -128.6442   308.6246 C5            1 RES     
   10395 C5        -254.5443  -129.8956   307.9449 C5            1 RES     
   10396 C5        -255.6286  -130.8186   307.3609 C5            1 RES     
   10397 C5        -256.4830  -130.1667   306.2558 C5            1 RES     
   10398 C5        -257.5001  -131.1769   305.6971 C5            1 RES     
   10399 C5        -258.5199  -130.5304   304.7488 C5            1 RES     
   10400 C5        -259.5895  -131.5342   304.2563 C5            1 RES     
   10401 C5        -259.1360  -132.4681   303.0913 C5            1 RES     
   10402 C5        -259.1332  -134.0004   303.3832 C5            1 RES     
   10403 C5        -260.5428  -134.5308   303.7763 C5            1 RES     
   10404 C5        -260.4741  -135.8200   304.6161 C5            1 RES     
   10405 C5        -261.7732  -136.0407   305.4204 C5            1 RES     
   10406 C5        -261.5929  -137.1571   306.4648 C5            1 RES     
   10407 C5        -262.7385  -137.2224   307.4909 C5            1 RES     
   10408 C5        -264.0844  -137.6084   306.8875 C5            1 RES     
   10409 C5        -258.4964  -134.7148   302.1468 C5            1 RES     
   10410 C0        -257.9953  -136.2081   302.0652 C0            1 RES     
   10411 C5        -257.8399  -136.5020   300.5101 C5            1 RES     
   10412 C5        -258.9967  -137.3524   299.8862 C5            1 RES     
   10413 C5        -258.7899  -138.8962   300.0317 C5            1 RES     
   10414 C5        -257.7260  -139.5181   299.0968 C5            1 RES     
   10415 C5        -257.4134  -140.9974   299.3870 C5            1 RES     
   10416 C5        -258.5255  -141.9955   299.0121 C5            1 RES     
   10417 C5        -258.8770  -142.0495   297.5096 C5            1 RES     
   10418 C5        -257.6929  -142.4384   296.6182 C5            1 RES     
   10419 C5        -259.3756  -136.9245   298.4293 C5            1 RES     
   10420 C5        -258.2186  -136.6741   297.4277 C5            1 RES     
   10421 C5        -258.7044  -136.4697   295.9749 C5            1 RES     
   10422 C5        -259.6602  -135.2757   295.7906 C5            1 RES     
   10423 C5        -260.1241  -135.0834   294.3326 C5            1 RES     
   10424 C5        -258.9890  -134.6632   293.3787 C5            1 RES     
   10425 C5        -259.4520  -134.4731   291.9230 C5            1 RES     
   10426 C5        -260.4642  -133.3410   291.7416 C5            1 RES     
   10427 H6        -255.6166  -127.9892   307.8927 H6            1 RES     
   10428 H6        -254.2659  -128.0640   309.0697 H6            1 RES     
   10429 H6        -255.8091  -128.9233   309.4346 H6            1 RES     
   10430 H6        -253.8342  -129.5947   307.1455 H6            1 RES     
   10431 H6        -253.9796  -130.4745   308.7090 H6            1 RES     
   10432 H6        -255.1205  -131.7146   306.9430 H6            1 RES     
   10433 H6        -256.2925  -131.1537   308.1882 H6            1 RES     
   10434 H6        -255.8337  -129.7994   305.4313 H6            1 RES     
   10435 H6        -257.0350  -129.3075   306.6914 H6            1 RES     
   10436 H6        -256.9630  -132.0081   305.1923 H6            1 RES     
   10437 H6        -258.0788  -131.5689   306.5563 H6            1 RES     
   10438 H6        -259.0454  -129.7488   305.3413 H6            1 RES     
   10439 H6        -258.0291  -130.0302   303.8864 H6            1 RES     
   10440 H6        -259.9847  -132.0773   305.1384 H6            1 RES     
   10441 H6        -260.4322  -130.9323   303.8545 H6            1 RES     
   10442 H6        -258.1036  -132.1621   302.8087 H6            1 RES     
   10443 H6        -259.7664  -132.2676   302.1979 H6            1 RES     
   10444 H6        -258.5146  -134.0606   304.2505 H6            1 RES     
   10445 H6        -261.0005  -133.7831   304.4464 H6            1 RES     
   10446 H6        -261.2295  -134.6177   302.9066 H6            1 RES     
   10447 H6        -260.2095  -136.6991   303.9913 H6            1 RES     
   10448 H6        -259.6768  -135.6739   305.3747 H6            1 RES     
   10449 H6        -262.6272  -136.2493   304.7409 H6            1 RES     
   10450 H6        -261.9909  -135.1063   305.9842 H6            1 RES     
   10451 H6        -261.4549  -138.1376   305.9620 H6            1 RES     
   10452 H6        -260.6735  -136.9365   307.0525 H6            1 RES     
   10453 H6        -262.8347  -136.2398   308.0047 H6            1 RES     
   10454 H6        -262.4743  -137.9813   308.2590 H6            1 RES     
   10455 H6        -264.0137  -138.6045   306.4030 H6            1 RES     
   10456 H6        -264.4200  -136.8541   306.1471 H6            1 RES     
   10457 H6        -264.8434  -137.6600   307.6976 H6            1 RES     
   10458 H6        -257.6052  -134.1243   301.8379 H6            1 RES     
   10459 H6        -259.2687  -134.5759   301.3546 H6            1 RES     
   10460 H6        -257.8130  -135.5263   299.9810 H6            1 RES     
   10461 H6        -256.8617  -136.9085   300.2185 H6            1 RES     
   10462 H6        -259.9116  -137.1226   300.4793 H6            1 RES     
   10463 H6        -258.5312  -139.1078   301.0918 H6            1 RES     
   10464 H6        -259.7535  -139.4052   299.8151 H6            1 RES     
   10465 H6        -258.0320  -139.4358   298.0395 H6            1 RES     
   10466 H6        -256.7849  -138.9612   299.2138 H6            1 RES     
   10467 H6        -256.4944  -141.2781   298.8308 H6            1 RES     
   10468 H6        -257.1778  -141.1097   300.4645 H6            1 RES     
   10469 H6        -259.4434  -141.7611   299.5900 H6            1 RES     
   10470 H6        -258.1870  -143.0097   299.3189 H6            1 RES     
   10471 H6        -259.2898  -141.0785   297.1675 H6            1 RES     
   10472 H6        -259.6708  -142.8153   297.3738 H6            1 RES     
   10473 H6        -257.2759  -143.4194   296.9306 H6            1 RES     
   10474 H6        -258.0330  -142.5191   295.5641 H6            1 RES     
   10475 H6        -256.8933  -141.6703   296.6531 H6            1 RES     
   10476 H6        -259.9210  -135.9600   298.5056 H6            1 RES     
   10477 H6        -260.0890  -137.6750   298.0240 H6            1 RES     
   10478 H6        -257.5109  -137.5146   297.3923 H6            1 RES     
   10479 H6        -257.6349  -135.7857   297.7418 H6            1 RES     
   10480 H6        -257.7972  -136.3185   295.3543 H6            1 RES     
   10481 H6        -259.2105  -137.3974   295.6274 H6            1 RES     
   10482 H6        -259.1803  -134.3409   296.1528 H6            1 RES     
   10483 H6        -260.5733  -135.4588   296.3946 H6            1 RES     
   10484 H6        -260.6009  -136.0197   293.9677 H6            1 RES     
   10485 H6        -260.8931  -134.2834   294.3432 H6            1 RES     
   10486 H6        -258.2091  -135.4511   293.3631 H6            1 RES     
   10487 H6        -258.5264  -133.7198   293.7427 H6            1 RES     
   10488 H6        -258.5576  -134.2290   291.3090 H6            1 RES     
   10489 H6        -259.8856  -135.4214   291.5382 H6            1 RES     
   10490 H6        -261.4110  -133.5575   292.2761 H6            1 RES     
   10491 H6        -260.7030  -133.2323   290.6623 H6            1 RES     
   10492 H6        -260.0410  -132.3822   292.1088 H6            1 RES     
   10493 C0        -257.7290  -129.6100   313.2265 C0            1 RES     
   10494 C0        -257.6294  -130.0295   314.6935 C0            1 RES     
   10495 C0        -257.8323  -131.3606   314.8430 C0            1 RES     
   10496 S1        -257.6725  -131.8829   316.4252 S1            1 RES     
   10497 C0        -257.3145  -130.3152   316.9874 C0            1 RES     
   10498 C0        -257.2786  -129.4262   315.8996 C0            1 RES     
   10499 C0        -257.9576  -131.9675   313.5629 C0            1 RES     
   10500 C0        -257.8362  -131.0303   312.6500 C0            1 RES     
   10501 C0        -257.6805  -131.5953   311.3225 C0            1 RES     
   10502 C0        -257.7290  -132.9802   311.3737 C0            1 RES     
   10503 S1        -257.9883  -133.6659   313.0225 S1            1 RES     
   10504 H2        -256.9542  -128.4126   316.0022 H2            1 RES     
   10505 H2        -257.4112  -131.0467   310.4365 H2            1 RES     
   10506 N3        -256.9758  -128.1733   320.0675 N3            1 RES     
   10507 C0        -257.1984  -128.5774   318.7843 C0            1 RES     
   10508 C0        -257.0459  -129.9240   318.3972 C0            1 RES     
   10509 C0        -256.6659  -130.8335   319.3981 C0            1 RES     
   10510 N3        -256.4721  -132.1641   319.1959 N3            1 RES     
   10511 S1        -256.0171  -132.6917   320.6957 S1            1 RES     
   10512 N3        -256.0468  -131.3253   321.6232 N3            1 RES     
   10513 C0        -256.4305  -130.3824   320.7245 C0            1 RES     
   10514 C0        -256.5930  -129.0408   321.0440 C0            1 RES     
   10515 H4        -257.5288  -127.8461   318.0680 H4            1 RES     
   10516 C5        -252.8693  -124.5452   320.1661 C5            1 RES     
   10517 C5        -252.8595  -125.6468   319.1052 C5            1 RES     
   10518 C5        -254.2592  -126.0146   318.5815 C5            1 RES     
   10519 C5        -254.9948  -124.8552   317.8809 C5            1 RES     
   10520 C5        -256.3572  -125.3289   317.3456 C5            1 RES     
   10521 C5        -257.2269  -124.1738   316.8293 C5            1 RES     
   10522 C5        -258.6269  -124.6463   316.3700 C5            1 RES     
   10523 C5        -258.6772  -125.2864   314.9477 C5            1 RES     
   10524 C5        -259.1422  -126.7731   314.8654 C5            1 RES     
   10525 C5        -260.5781  -126.9766   315.4308 C5            1 RES     
   10526 C5        -260.8240  -128.4199   315.9087 C5            1 RES     
   10527 C5        -261.9964  -128.4916   316.9105 C5            1 RES     
   10528 C5        -262.0523  -129.8683   317.5971 C5            1 RES     
   10529 C5        -262.9987  -129.9061   318.8104 C5            1 RES     
   10530 C5        -264.4670  -129.7038   318.4527 C5            1 RES     
   10531 C5        -258.9586  -127.2433   313.3856 C5            1 RES     
   10532 C0        -258.9982  -128.7252   312.8467 C0            1 RES     
   10533 C5        -259.1689  -128.5824   311.2721 C5            1 RES     
   10534 C5        -260.6177  -128.8517   310.7439 C5            1 RES     
   10535 C5        -260.9168  -130.3634   310.4744 C5            1 RES     
   10536 C5        -260.2618  -130.9574   309.2052 C5            1 RES     
   10537 C5        -260.4205  -132.4821   309.0638 C5            1 RES     
   10538 C5        -261.8417  -132.9720   308.7266 C5            1 RES     
   10539 C5        -262.3981  -132.4828   307.3720 C5            1 RES     
   10540 C5        -261.5477  -132.9103   306.1713 C5            1 RES     
   10541 C5        -261.0334  -127.9278   309.5511 C5            1 RES     
   10542 C5        -260.0114  -127.7312   308.4016 C5            1 RES     
   10543 C5        -260.6005  -126.9826   307.1846 C5            1 RES     
   10544 C5        -261.1216  -125.5686   307.5044 C5            1 RES     
   10545 C5        -261.6950  -124.8358   306.2747 C5            1 RES     
   10546 C5        -260.6304  -124.4918   305.2149 C5            1 RES     
   10547 C5        -261.2032  -123.7619   303.9867 C5            1 RES     
   10548 C5        -261.7972  -122.3895   304.3075 C5            1 RES     
   10549 H6        -253.2344  -123.5877   319.7426 H6            1 RES     
   10550 H6        -251.8343  -124.3803   320.5342 H6            1 RES     
   10551 H6        -253.5078  -124.8385   321.0263 H6            1 RES     
   10552 H6        -252.2093  -125.3375   318.2594 H6            1 RES     
   10553 H6        -252.4177  -126.5584   319.5655 H6            1 RES     
   10554 H6        -254.1412  -126.8541   317.8625 H6            1 RES     
   10555 H6        -254.8738  -126.3763   319.4353 H6            1 RES     
   10556 H6        -254.3829  -124.4608   317.0405 H6            1 RES     
   10557 H6        -255.1635  -124.0421   318.6179 H6            1 RES     
   10558 H6        -256.2028  -126.0919   316.5529 H6            1 RES     
   10559 H6        -256.9067  -125.7759   318.1971 H6            1 RES     
   10560 H6        -257.3746  -123.4851   317.6907 H6            1 RES     
   10561 H6        -256.7239  -123.6023   316.0199 H6            1 RES     
   10562 H6        -259.0522  -125.2897   317.1665 H6            1 RES     
   10563 H6        -259.2695  -123.7417   316.3204 H6            1 RES     
   10564 H6        -257.6522  -125.2144   314.5193 H6            1 RES     
   10565 H6        -259.3239  -124.6646   314.2915 H6            1 RES     
   10566 H6        -258.4635  -127.2559   315.5323 H6            1 RES     
   10567 H6        -260.6629  -126.3605   316.3424 H6            1 RES     
   10568 H6        -261.3694  -126.6084   314.7426 H6            1 RES     
   10569 H6        -260.9566  -129.1149   315.0527 H6            1 RES     
   10570 H6        -259.9255  -128.7325   316.4807 H6            1 RES     
   10571 H6        -262.9575  -128.2433   316.4114 H6            1 RES     
   10572 H6        -261.8104  -127.7414   317.7111 H6            1 RES     
   10573 H6        -262.3195  -130.6561   316.8614 H6            1 RES     
   10574 H6        -261.0391  -130.0972   317.9973 H6            1 RES     
   10575 H6        -262.6903  -129.1313   319.5476 H6            1 RES     
   10576 H6        -262.8965  -130.8988   319.3003 H6            1 RES     
   10577 H6        -264.7996  -130.4924   317.7459 H6            1 RES     
   10578 H6        -264.6335  -128.7034   318.0041 H6            1 RES     
   10579 H6        -265.0786  -129.7747   319.3779 H6            1 RES     
   10580 H6        -257.9745  -126.8638   313.0306 H6            1 RES     
   10581 H6        -259.7440  -126.6674   312.8426 H6            1 RES     
   10582 H6        -258.8941  -127.5434   310.9934 H6            1 RES     
   10583 H6        -258.4321  -129.1437   310.6810 H6            1 RES     
   10584 H6        -261.3117  -128.5580   311.5647 H6            1 RES     
   10585 H6        -260.5970  -130.9397   311.3695 H6            1 RES     
   10586 H6        -262.0149  -130.4942   310.3678 H6            1 RES     
   10587 H6        -260.6682  -130.4867   308.2933 H6            1 RES     
   10588 H6        -259.1826  -130.7472   309.2339 H6            1 RES     
   10589 H6        -259.7344  -132.8344   308.2651 H6            1 RES     
   10590 H6        -260.0869  -132.9663   310.0037 H6            1 RES     
   10591 H6        -262.5391  -132.6687   309.5348 H6            1 RES     
   10592 H6        -261.8196  -134.0839   308.7037 H6            1 RES     
   10593 H6        -262.5090  -131.3792   307.3682 H6            1 RES     
   10594 H6        -263.4119  -132.9198   307.2435 H6            1 RES     
   10595 H6        -261.4405  -134.0156   306.1437 H6            1 RES     
   10596 H6        -262.0395  -132.5800   305.2319 H6            1 RES     
   10597 H6        -260.5420  -132.4434   306.2035 H6            1 RES     
   10598 H6        -261.2113  -126.9152   309.9714 H6            1 RES     
   10599 H6        -262.0048  -128.2944   309.1532 H6            1 RES     
   10600 H6        -259.6352  -128.6879   308.0124 H6            1 RES     
   10601 H6        -259.1280  -127.1752   308.7747 H6            1 RES     
   10602 H6        -259.7910  -126.9179   306.4286 H6            1 RES     
   10603 H6        -261.4291  -127.5865   306.7533 H6            1 RES     
   10604 H6        -260.3129  -124.9552   307.9573 H6            1 RES     
   10605 H6        -261.9494  -125.6560   308.2387 H6            1 RES     
   10606 H6        -262.5017  -125.4507   305.8183 H6            1 RES     
   10607 H6        -262.1453  -123.8915   306.6448 H6            1 RES     
   10608 H6        -260.1666  -125.4266   304.8404 H6            1 RES     
   10609 H6        -259.8347  -123.8661   305.6753 H6            1 RES     
   10610 H6        -260.3740  -123.6106   303.2615 H6            1 RES     
   10611 H6        -261.9765  -124.3941   303.4989 H6            1 RES     
   10612 H6        -262.6773  -122.4776   304.9757 H6            1 RES     
   10613 H6        -262.1352  -121.9072   303.3658 H6            1 RES     
   10614 H6        -261.0328  -121.7397   304.7834 H6            1 RES     
   10615 C0        -254.9951  -126.0359   324.8851 C0            1 RES     
   10616 C0        -254.8356  -126.8766   326.1523 C0            1 RES     
   10617 C0        -255.4458  -128.0797   326.0286 C0            1 RES     
   10618 S1        -255.2482  -129.0651   327.3671 S1            1 RES     
   10619 C0        -254.3151  -127.8974   328.1844 C0            1 RES     
   10620 C0        -254.1391  -126.7767   327.3550 C0            1 RES     
   10621 C0        -255.9435  -128.2246   324.7042 C0            1 RES     
   10622 C0        -255.6472  -127.1350   324.0322 C0            1 RES     
   10623 C0        -255.8757  -127.3068   322.6095 C0            1 RES     
   10624 C0        -256.3734  -128.5738   322.3454 C0            1 RES     
   10625 S1        -256.6117  -129.6101   323.8033 S1            1 RES     
   10626 H2        -253.4857  -125.9716   327.6157 H2            1 RES     
   10627 H2        -255.5666  -126.6218   321.8389 H2            1 RES     
   10628 N3        -252.8564  -126.9364   331.5218 N3            1 RES     
   10629 C0        -253.3780  -126.8676   330.2638 C0            1 RES     
   10630 C0        -253.7370  -128.0280   329.5488 C0            1 RES     
   10631 C0        -253.5441  -129.2590   330.1976 C0            1 RES     
   10632 N3        -253.8333  -130.4704   329.6518 N3            1 RES     
   10633 S1        -253.3737  -131.5194   330.8448 S1            1 RES     
   10634 N3        -252.8179  -130.5337   332.0479 N3            1 RES     
   10635 C0        -252.9888  -129.3011   331.5045 C0            1 RES     
   10636 C0        -252.6503  -128.1227   332.1567 C0            1 RES     
   10637 H4        -253.5441  -125.8968   329.8315 H4            1 RES     
   10638 C5        -247.8077  -124.8041   331.5373 C5            1 RES     
   10639 C5        -248.3130  -125.5033   330.2743 C5            1 RES     
   10640 C5        -249.8141  -125.2925   330.0085 C5            1 RES     
   10641 C5        -250.2138  -123.8211   329.7822 C5            1 RES     
   10642 C5        -251.7169  -123.7143   329.4722 C5            1 RES     
   10643 C5        -252.2172  -122.2630   329.4495 C5            1 RES     
   10644 C5        -253.7444  -122.1667   329.2200 C5            1 RES     
   10645 C5        -254.2032  -122.3214   327.7366 C5            1 RES     
   10646 C5        -255.1419  -123.5252   327.4162 C5            1 RES     
   10647 C5        -256.4697  -123.4729   328.2270 C5            1 RES     
   10648 C5        -257.1111  -124.8627   328.3973 C5            1 RES     
   10649 C5        -258.0881  -124.8917   329.5923 C5            1 RES     
   10650 C5        -258.5009  -126.3351   329.9328 C5            1 RES     
   10651 C5        -259.2262  -126.4586   331.2848 C5            1 RES     
   10652 C5        -260.5788  -125.7562   331.3244 C5            1 RES     
   10653 C5        -255.3342  -123.5736   325.8653 C5            1 RES     
   10654 C0        -255.9386  -124.7591   325.0184 C0            1 RES     
   10655 C5        -256.2712  -124.1198   323.6008 C5            1 RES     
   10656 C5        -257.7861  -123.8041   323.3647 C5            1 RES     
   10657 C5        -258.6046  -125.0227   322.8241 C5            1 RES     
   10658 C5        -258.3687  -125.3783   321.3373 C5            1 RES     
   10659 C5        -259.0426  -126.6858   320.8831 C5            1 RES     
   10660 C5        -260.5783  -126.6352   320.7700 C5            1 RES     
   10661 C5        -261.1249  -125.6352   319.7282 C5            1 RES     
   10662 C5        -260.6418  -125.9138   318.3010 C5            1 RES     
   10663 C5        -258.0345  -122.4937   322.5459 C5            1 RES     
   10664 C5        -257.1770  -122.2650   321.2743 C5            1 RES     
   10665 C5        -257.6487  -121.0591   320.4306 C5            1 RES     
   10666 C5        -257.6207  -119.7138   321.1807 C5            1 RES     
   10667 C5        -258.0848  -118.5229   320.3179 C5            1 RES     
   10668 C5        -257.1261  -118.1978   319.1560 C5            1 RES     
   10669 C5        -257.5904  -117.0102   318.2937 C5            1 RES     
   10670 C5        -257.6440  -115.6827   319.0515 C5            1 RES     
   10671 H6        -247.8899  -123.7024   331.4426 H6            1 RES     
   10672 H6        -246.7358  -125.0522   331.6909 H6            1 RES     
   10673 H6        -248.3801  -125.1444   332.4263 H6            1 RES     
   10674 H6        -247.7224  -125.1559   329.4001 H6            1 RES     
   10675 H6        -248.1389  -126.5953   330.3974 H6            1 RES     
   10676 H6        -250.0835  -125.8826   329.1057 H6            1 RES     
   10677 H6        -250.3878  -125.7002   330.8700 H6            1 RES     
   10678 H6        -249.6298  -123.3867   328.9416 H6            1 RES     
   10679 H6        -249.9979  -123.2462   330.7073 H6            1 RES     
   10680 H6        -251.9373  -124.2231   328.5094 H6            1 RES     
   10681 H6        -252.2585  -124.2174   330.2970 H6            1 RES     
   10682 H6        -252.0057  -121.8440   330.4584 H6            1 RES     
   10683 H6        -251.6719  -121.6451   328.7040 H6            1 RES     
   10684 H6        -254.2430  -122.8682   329.9190 H6            1 RES     
   10685 H6        -254.0506  -121.1447   329.5291 H6            1 RES     
   10686 H6        -253.2832  -122.4184   327.1173 H6            1 RES     
   10687 H6        -254.6921  -121.3791   327.4068 H6            1 RES     
   10688 H6        -254.5756  -124.3525   327.7814 H6            1 RES     
   10689 H6        -256.2165  -123.1528   329.2522 H6            1 RES     
   10690 H6        -257.1822  -122.7125   327.8403 H6            1 RES     
   10691 H6        -257.5855  -125.2101   327.4552 H6            1 RES     
   10692 H6        -256.2965  -125.5685   328.6630 H6            1 RES     
   10693 H6        -258.9722  -124.2485   329.3947 H6            1 RES     
   10694 H6        -257.5533  -124.4927   330.4828 H6            1 RES     
   10695 H6        -259.1148  -126.7648   329.1131 H6            1 RES     
   10696 H6        -257.5756  -126.9464   330.0296 H6            1 RES     
   10697 H6        -258.5780  -126.0530   332.0936 H6            1 RES     
   10698 H6        -259.3916  -127.5380   331.4933 H6            1 RES     
   10699 H6        -261.2500  -126.1766   330.5467 H6            1 RES     
   10700 H6        -260.4651  -124.6638   331.1713 H6            1 RES     
   10701 H6        -261.0432  -125.9198   332.3208 H6            1 RES     
   10702 H6        -254.3401  -123.3996   325.3964 H6            1 RES     
   10703 H6        -255.9519  -122.6675   325.6631 H6            1 RES     
   10704 H6        -255.7090  -123.1660   323.5180 H6            1 RES     
   10705 H6        -255.8530  -124.6670   322.7446 H6            1 RES     
   10706 H6        -258.2210  -123.5807   324.3660 H6            1 RES     
   10707 H6        -258.3721  -125.9012   323.4641 H6            1 RES     
   10708 H6        -259.6874  -124.8022   322.9400 H6            1 RES     
   10709 H6        -258.7195  -124.5670   320.6761 H6            1 RES     
   10710 H6        -257.2882  -125.4981   321.1704 H6            1 RES     
   10711 H6        -258.6315  -126.9670   319.8909 H6            1 RES     
   10712 H6        -258.7604  -127.4972   321.5840 H6            1 RES     
   10713 H6        -261.0149  -126.3985   321.7623 H6            1 RES     
   10714 H6        -260.9299  -127.6510   320.4837 H6            1 RES     
   10715 H6        -260.8625  -124.5943   320.0073 H6            1 RES     
   10716 H6        -262.2336  -125.7120   319.7330 H6            1 RES     
   10717 H6        -260.9125  -126.9461   317.9927 H6            1 RES     
   10718 H6        -261.1226  -125.1987   317.6005 H6            1 RES     
   10719 H6        -259.5441  -125.7793   318.2141 H6            1 RES     
   10720 H6        -257.8055  -121.6412   323.2200 H6            1 RES     
   10721 H6        -259.1181  -122.4392   322.3027 H6            1 RES     
   10722 H6        -257.1982  -123.1313   320.5979 H6            1 RES     
   10723 H6        -256.1162  -122.1145   321.5580 H6            1 RES     
   10724 H6        -256.9782  -121.0062   319.5482 H6            1 RES     
   10725 H6        -258.6826  -121.2517   320.0682 H6            1 RES     
   10726 H6        -256.5992  -119.5131   321.5702 H6            1 RES     
   10727 H6        -258.3190  -119.7758   322.0413 H6            1 RES     
   10728 H6        -259.1053  -118.7245   319.9243 H6            1 RES     
   10729 H6        -258.1396  -117.6416   320.9900 H6            1 RES     
   10730 H6        -257.0562  -119.0730   318.4789 H6            1 RES     
   10731 H6        -256.1117  -117.9844   319.5584 H6            1 RES     
   10732 H6        -256.8684  -116.8929   317.4563 H6            1 RES     
   10733 H6        -258.5899  -117.2278   317.8588 H6            1 RES     
   10734 H6        -258.4005  -115.7113   319.8613 H6            1 RES     
   10735 H6        -257.9313  -114.8713   318.3495 H6            1 RES     
   10736 H6        -256.6485  -115.4431   319.4812 H6            1 RES     
   10737 C0        -249.6238  -126.9497   336.1318 C0            1 RES     
   10738 C0        -249.5765  -128.1337   337.0981 C0            1 RES     
   10739 C0        -250.5623  -129.0256   336.8375 C0            1 RES     
   10740 S1        -250.5174  -130.3733   337.8290 S1            1 RES     
   10741 C0        -249.1448  -129.8077   338.6646 C0            1 RES     
   10742 C0        -248.7249  -128.5902   338.1022 C0            1 RES     
   10743 C0        -251.2604  -128.6304   335.6631 C0            1 RES     
   10744 C0        -250.7166  -127.5213   335.2152 C0            1 RES     
   10745 C0        -251.1862  -127.1977   333.8809 C0            1 RES     
   10746 C0        -252.1080  -128.1385   333.4472 C0            1 RES     
   10747 S1        -252.4698  -129.4452   334.6379 S1            1 RES     
   10748 H2        -247.8116  -128.1145   338.3896 H2            1 RES     
   10749 H2        -250.7785  -126.4331   333.2423 H2            1 RES     
   10750 N3        -246.9972  -130.3163   341.7173 N3            1 RES     
   10751 C0        -247.6374  -129.7386   340.6609 C0            1 RES     
   10752 C0        -248.4576  -130.4889   339.7945 C0            1 RES     
   10753 C0        -248.5952  -131.8580   340.0771 C0            1 RES     
   10754 N3        -249.3436  -132.7242   339.3432 N3            1 RES     
   10755 S1        -249.0957  -134.1613   340.1230 S1            1 RES     
   10756 N3        -248.0814  -133.7687   341.3660 N3            1 RES     
   10757 C0        -247.9080  -132.4351   341.1784 C0            1 RES     
   10758 C0        -247.1097  -131.6441   341.9943 C0            1 RES     
   10759 H4        -247.5306  -128.6780   340.5161 H4            1 RES     
   10760 C5        -241.5777  -129.7916   341.0927 C5            1 RES     
   10761 C5        -242.4582  -129.9190   339.8485 C5            1 RES     
   10762 C5        -243.8258  -129.2264   339.9844 C5            1 RES     
   10763 C5        -243.7420  -127.7030   340.2041 C5            1 RES     
   10764 C5        -245.1522  -127.0920   340.2744 C5            1 RES     
   10765 C5        -245.1404  -125.6183   340.7046 C5            1 RES     
   10766 C5        -246.5652  -125.0337   340.8540 C5            1 RES     
   10767 C5        -247.2525  -124.6120   339.5181 C5            1 RES     
   10768 C5        -248.5727  -125.3545   339.1453 C5            1 RES     
   10769 C5        -249.6802  -125.1706   340.2236 C5            1 RES     
   10770 C5        -250.7160  -126.3102   340.2046 C5            1 RES     
   10771 C5        -251.4694  -126.4117   341.5482 C5            1 RES     
   10772 C5        -252.2858  -127.7145   341.6261 C5            1 RES     
   10773 C5        -252.8138  -128.0191   343.0396 C5            1 RES     
   10774 C5        -253.8369  -127.0084   343.5458 C5            1 RES     
   10775 C5        -248.9855  -124.8908   337.7104 C5            1 RES     
   10776 C0        -250.0615  -125.5565   336.7686 C0            1 RES     
   10777 C5        -250.3584  -124.4639   335.6519 C5            1 RES     
   10778 C5        -251.6999  -123.6802   335.8435 C5            1 RES     
   10779 C5        -252.9437  -124.4056   335.2320 C5            1 RES     
   10780 C5        -253.0501  -124.3618   333.6894 C5            1 RES     
   10781 C5        -254.1764  -125.2345   333.1063 C5            1 RES     
   10782 C5        -255.6079  -124.7233   333.3570 C5            1 RES     
   10783 C5        -255.9320  -123.3508   332.7283 C5            1 RES     
   10784 C5        -255.7739  -123.3236   331.2045 C5            1 RES     
   10785 C5        -251.6114  -122.1731   335.4310 C5            1 RES     
   10786 C5        -250.9139  -121.8331   334.0885 C5            1 RES     
   10787 C5        -251.0720  -120.3514   333.6784 C5            1 RES     
   10788 C5        -250.4942  -119.3493   334.6958 C5            1 RES     
   10789 C5        -250.6528  -117.8780   334.2623 C5            1 RES     
   10790 C5        -249.8135  -117.5104   333.0233 C5            1 RES     
   10791 C5        -249.9734  -116.0421   332.5896 C5            1 RES     
   10792 C5        -249.4766  -115.0355   333.6285 C5            1 RES     
   10793 H6        -241.3020  -128.7339   341.2789 H6            1 RES     
   10794 H6        -240.6386  -130.3647   340.9385 H6            1 RES     
   10795 H6        -242.0999  -130.2018   341.9830 H6            1 RES     
   10796 H6        -241.9145  -129.5117   338.9697 H6            1 RES     
   10797 H6        -242.6409  -131.0020   339.6707 H6            1 RES     
   10798 H6        -244.3996  -129.4258   339.0534 H6            1 RES     
   10799 H6        -244.3754  -129.6898   340.8334 H6            1 RES     
   10800 H6        -243.1710  -127.2243   339.3788 H6            1 RES     
   10801 H6        -243.2201  -127.5090   341.1647 H6            1 RES     
   10802 H6        -245.6616  -127.2133   339.2945 H6            1 RES     
   10803 H6        -245.7088  -127.6409   341.0591 H6            1 RES     
   10804 H6        -244.6626  -125.5901   341.7091 H6            1 RES     
   10805 H6        -244.5311  -124.9888   340.0209 H6            1 RES     
   10806 H6        -247.1652  -125.7392   341.4637 H6            1 RES     
   10807 H6        -246.4683  -124.1040   341.4541 H6            1 RES     
   10808 H6        -246.5134  -124.7781   338.7024 H6            1 RES     
   10809 H6        -247.4421  -123.5168   339.5363 H6            1 RES     
   10810 H6        -248.2678  -126.3767   339.1700 H6            1 RES     
   10811 H6        -249.1941  -125.2492   341.2111 H6            1 RES     
   10812 H6        -250.1467  -124.1621   340.1959 H6            1 RES     
   10813 H6        -251.4059  -126.2187   339.3392 H6            1 RES     
   10814 H6        -250.1530  -127.2621   340.1075 H6            1 RES     
   10815 H6        -252.1084  -125.5174   341.7107 H6            1 RES     
   10816 H6        -250.7132  -126.4580   342.3633 H6            1 RES     
   10817 H6        -253.1160  -127.6947   340.8887 H6            1 RES     
   10818 H6        -251.6120  -128.5617   341.3665 H6            1 RES     
   10819 H6        -251.9611  -128.0673   343.7533 H6            1 RES     
   10820 H6        -253.2971  -129.0200   343.0219 H6            1 RES     
   10821 H6        -254.7115  -126.9762   342.8631 H6            1 RES     
   10822 H6        -253.3897  -125.9971   343.6305 H6            1 RES     
   10823 H6        -254.1847  -127.3188   344.5547 H6            1 RES     
   10824 H6        -248.0662  -124.8741   337.0836 H6            1 RES     
   10825 H6        -249.2893  -123.8298   337.8699 H6            1 RES     
   10826 H6        -249.5290  -123.7259   335.6697 H6            1 RES     
   10827 H6        -250.2700  -124.8310   334.6201 H6            1 RES     
   10828 H6        -251.8910  -123.6468   336.9409 H6            1 RES     
   10829 H6        -252.9286  -125.4612   335.5798 H6            1 RES     
   10830 H6        -253.8643  -123.9336   335.6370 H6            1 RES     
   10831 H6        -253.2007  -123.3283   333.3326 H6            1 RES     
   10832 H6        -252.1053  -124.7264   333.2603 H6            1 RES     
   10833 H6        -254.0253  -125.3167   332.0095 H6            1 RES     
   10834 H6        -254.0841  -126.2605   333.5161 H6            1 RES     
   10835 H6        -255.7975  -124.6745   334.4493 H6            1 RES     
   10836 H6        -256.3132  -125.4690   332.9282 H6            1 RES     
   10837 H6        -255.3027  -122.5549   333.1763 H6            1 RES     
   10838 H6        -256.9911  -123.1106   332.9647 H6            1 RES     
   10839 H6        -256.4123  -124.1007   330.7327 H6            1 RES     
   10840 H6        -256.0834  -122.3299   330.8171 H6            1 RES     
   10841 H6        -254.7176  -123.4839   330.9063 H6            1 RES     
   10842 H6        -251.0204  -121.6557   336.2162 H6            1 RES     
   10843 H6        -252.6383  -121.7475   335.4579 H6            1 RES     
   10844 H6        -251.3161  -122.4210   333.2511 H6            1 RES     
   10845 H6        -249.8346  -122.0769   334.1531 H6            1 RES     
   10846 H6        -250.5527  -120.2335   332.7051 H6            1 RES     
   10847 H6        -252.1512  -120.1308   333.5236 H6            1 RES     
   10848 H6        -249.4201  -119.5671   334.8809 H6            1 RES     
   10849 H6        -251.0455  -119.4615   335.6527 H6            1 RES     
   10850 H6        -251.7270  -117.6600   334.0728 H6            1 RES     
   10851 H6        -250.3172  -117.2538   335.1162 H6            1 RES     
   10852 H6        -250.1338  -118.1318   332.1627 H6            1 RES     
   10853 H6        -248.7400  -117.7184   333.2252 H6            1 RES     
   10854 H6        -249.3783  -115.8928   331.6622 H6            1 RES     
   10855 H6        -251.0390  -115.8327   332.3526 H6            1 RES     
   10856 H6        -250.0783  -115.0859   334.5582 H6            1 RES     
   10857 H6        -249.5737  -114.0078   333.2187 H6            1 RES     
   10858 H6        -248.4082  -115.2222   333.8667 H6            1 RES     
   10859 C0        -243.3398  -132.5864   345.3465 C0            1 RES     
   10860 C0        -243.5531  -133.9646   345.9734 C0            1 RES     
   10861 C0        -244.8053  -134.4262   345.7407 C0            1 RES     
   10862 S1        -245.0717  -135.9608   346.3536 S1            1 RES     
   10863 C0        -243.4864  -136.0743   346.9669 C0            1 RES     
   10864 C0        -242.7695  -134.9151   346.6246 C0            1 RES     
   10865 C0        -245.4900  -133.5252   344.8793 C0            1 RES     
   10866 C0        -244.6774  -132.5333   344.5922 C0            1 RES     
   10867 C0        -245.1951  -131.7150   343.5114 C0            1 RES     
   10868 C0        -246.4280  -132.1887   343.0892 C0            1 RES     
   10869 S1        -247.0324  -133.6297   343.9917 S1            1 RES     
   10870 H2        -241.7193  -134.8212   346.8019 H2            1 RES     
   10871 H2        -244.6506  -130.9440   342.9941 H2            1 RES     
   10872 N3        -241.2238  -138.0363   349.2518 N3            1 RES     
   10873 C0        -241.7773  -137.0192   348.5317 C0            1 RES     
   10874 C0        -242.9130  -137.2208   347.7217 C0            1 RES     
   10875 C0        -243.4562  -138.5161   347.7003 C0            1 RES     
   10876 N3        -244.5447  -138.8825   346.9723 N3            1 RES     
   10877 S1        -244.6811  -140.4938   347.3186 S1            1 RES     
   10878 N3        -243.4303  -140.7840   348.3575 N3            1 RES     
   10879 C0        -242.8522  -139.5590   348.4524 C0            1 RES     
   10880 C0        -241.7306  -139.2993   349.2290 C0            1 RES     
   10881 H4        -241.3461  -136.0376   348.6184 H4            1 RES     
   10882 C5        -236.0818  -138.8980   347.5627 C5            1 RES     
   10883 C5        -237.1198  -138.4027   346.5545 C5            1 RES     
   10884 C5        -238.1467  -137.4249   347.1528 C5            1 RES     
   10885 C5        -237.5320  -136.1205   347.6976 C5            1 RES     
   10886 C5        -238.6349  -135.1861   348.2244 C5            1 RES     
   10887 C5        -238.0744  -133.9684   348.9729 C5            1 RES     
   10888 C5        -239.1886  -133.0772   349.5717 C5            1 RES     
   10889 C5        -239.8771  -132.1076   348.5614 C5            1 RES     
   10890 C5        -241.4073  -132.3059   348.3328 C5            1 RES     
   10891 C5        -242.2282  -132.1419   349.6451 C5            1 RES     
   10892 C5        -243.5753  -132.8867   349.5943 C5            1 RES     
   10893 C5        -244.1235  -133.1607   351.0112 C5            1 RES     
   10894 C5        -245.3065  -134.1446   350.9646 C5            1 RES     
   10895 C5        -245.7019  -134.6881   352.3494 C5            1 RES     
   10896 C5        -246.2499  -133.6248   353.2947 C5            1 RES     
   10897 C5        -241.8397  -131.3461   347.1768 C5            1 RES     
   10898 C0        -243.1964  -131.3764   346.3728 C0            1 RES     
   10899 C5        -243.2672  -129.9675   345.6386 C5            1 RES     
   10900 C5        -244.2316  -128.9301   346.3051 C5            1 RES     
   10901 C5        -245.7184  -129.0644   345.8374 C5            1 RES     
   10902 C5        -246.0195  -128.5431   344.4125 C5            1 RES     
   10903 C5        -247.4415  -128.8533   343.9109 C5            1 RES     
   10904 C5        -248.5721  -128.0569   344.5899 C5            1 RES     
   10905 C5        -248.5070  -126.5274   344.3887 C5            1 RES     
   10906 C5        -248.5642  -126.1011   342.9181 C5            1 RES     
   10907 C5        -243.7068  -127.4569   346.2470 C5            1 RES     
   10908 C5        -243.1315  -126.9494   344.8994 C5            1 RES     
   10909 C5        -242.8447  -125.4308   344.8931 C5            1 RES     
   10910 C5        -241.8305  -124.9751   345.9594 C5            1 RES     
   10911 C5        -241.5509  -123.4589   345.9287 C5            1 RES     
   10912 C5        -240.8197  -122.9963   344.6535 C5            1 RES     
   10913 C5        -240.5423  -121.4825   344.6222 C5            1 RES     
   10914 C5        -239.5991  -121.0063   345.7280 C5            1 RES     
   10915 H6        -235.4474  -138.0633   347.9238 H6            1 RES     
   10916 H6        -235.4175  -139.6407   347.0715 H6            1 RES     
   10917 H6        -236.5802  -139.3866   348.4267 H6            1 RES     
   10918 H6        -236.6007  -137.9262   345.6959 H6            1 RES     
   10919 H6        -237.6746  -139.2891   346.1745 H6            1 RES     
   10920 H6        -238.8786  -137.1734   346.3549 H6            1 RES     
   10921 H6        -238.6941  -137.9423   347.9715 H6            1 RES     
   10922 H6        -236.9562  -135.6020   346.9001 H6            1 RES     
   10923 H6        -236.8461  -136.3710   348.5340 H6            1 RES     
   10924 H6        -239.2878  -134.8670   347.3840 H6            1 RES     
   10925 H6        -239.2262  -135.7609   348.9638 H6            1 RES     
   10926 H6        -237.4785  -134.3709   349.8219 H6            1 RES     
   10927 H6        -237.3930  -133.3643   348.3359 H6            1 RES     
   10928 H6        -239.8969  -133.7317   350.1187 H6            1 RES     
   10929 H6        -238.7055  -132.4303   350.3346 H6            1 RES     
   10930 H6        -239.3570  -132.2285   347.5845 H6            1 RES     
   10931 H6        -239.6879  -131.0587   348.8771 H6            1 RES     
   10932 H6        -241.4586  -133.3331   348.0487 H6            1 RES     
   10933 H6        -241.6624  -132.6395   350.4513 H6            1 RES     
   10934 H6        -242.3325  -131.0809   349.9595 H6            1 RES     
   10935 H6        -244.3098  -132.3558   348.9525 H6            1 RES     
   10936 H6        -243.3797  -133.8865   349.1534 H6            1 RES     
   10937 H6        -244.3999  -132.2113   351.5177 H6            1 RES     
   10938 H6        -243.3191  -133.6542   351.6011 H6            1 RES     
   10939 H6        -246.1777  -133.6773   350.4587 H6            1 RES     
   10940 H6        -244.9955  -135.0325   350.3694 H6            1 RES     
   10941 H6        -244.8224  -135.1808   352.8211 H6            1 RES     
   10942 H6        -246.4875  -135.4619   352.2078 H6            1 RES     
   10943 H6        -247.1508  -133.1497   352.8535 H6            1 RES     
   10944 H6        -245.4852  -132.8512   353.5102 H6            1 RES     
   10945 H6        -246.5359  -134.1060   354.2548 H6            1 RES     
   10946 H6        -241.0644  -131.4059   346.3807 H6            1 RES     
   10947 H6        -241.7486  -130.3377   347.6439 H6            1 RES     
   10948 H6        -242.2462  -129.5315   345.6410 H6            1 RES     
   10949 H6        -243.4513  -130.0259   344.5570 H6            1 RES     
   10950 H6        -244.2450  -129.1669   347.3939 H6            1 RES     
   10951 H6        -246.0060  -130.1352   345.9165 H6            1 RES     
   10952 H6        -246.3638  -128.4926   346.5382 H6            1 RES     
   10953 H6        -245.8670  -127.4517   344.3503 H6            1 RES     
   10954 H6        -245.3193  -129.0163   343.7086 H6            1 RES     
   10955 H6        -247.4817  -128.6499   342.8201 H6            1 RES     
   10956 H6        -247.6385  -129.9368   344.0381 H6            1 RES     
   10957 H6        -248.5796  -128.2786   345.6771 H6            1 RES     
   10958 H6        -249.5376  -128.4146   344.1689 H6            1 RES     
   10959 H6        -247.5930  -126.1081   344.8566 H6            1 RES     
   10960 H6        -249.3821  -126.0792   344.9070 H6            1 RES     
   10961 H6        -249.4838  -126.4937   342.4342 H6            1 RES     
   10962 H6        -248.5773  -124.9925   342.8535 H6            1 RES     
   10963 H6        -247.6738  -126.4574   342.3607 H6            1 RES     
   10964 H6        -242.8736  -127.3799   346.9774 H6            1 RES     
   10965 H6        -244.5197  -126.7870   346.6031 H6            1 RES     
   10966 H6        -243.8192  -127.1286   344.0606 H6            1 RES     
   10967 H6        -242.1966  -127.4946   344.6604 H6            1 RES     
   10968 H6        -242.4576  -125.1842   343.8830 H6            1 RES     
   10969 H6        -243.7999  -124.8803   345.0413 H6            1 RES     
   10970 H6        -240.8749  -125.5303   345.8417 H6            1 RES     
   10971 H6        -242.2478  -125.2026   346.9625 H6            1 RES     
   10972 H6        -242.5071  -122.9022   346.0424 H6            1 RES     
   10973 H6        -240.9109  -123.2326   346.8066 H6            1 RES     
   10974 H6        -241.4453  -123.2224   343.7665 H6            1 RES     
   10975 H6        -239.8590  -123.5474   344.5541 H6            1 RES     
   10976 H6        -240.0677  -121.2421   343.6458 H6            1 RES     
   10977 H6        -241.5001  -120.9222   344.6870 H6            1 RES     
   10978 H6        -240.0467  -121.1552   346.7312 H6            1 RES     
   10979 H6        -239.4060  -119.9198   345.6024 H6            1 RES     
   10980 H6        -238.6310  -121.5470   345.6691 H6            1 RES     
   10981 C0        -238.0566  -142.2015   351.3306 C0            1 RES     
   10982 C0        -238.6252  -143.5846   351.6497 C0            1 RES     
   10983 C0        -239.9791  -143.5863   351.6038 C0            1 RES     
   10984 S1        -240.6510  -145.0933   351.8852 S1            1 RES     
   10985 C0        -239.1239  -145.8223   352.0817 C0            1 RES     
   10986 C0        -238.1183  -144.8643   351.8672 C0            1 RES     
   10987 C0        -240.4395  -142.3182   351.1538 C0            1 RES     
   10988 C0        -239.3925  -141.5562   350.9308 C0            1 RES     
   10989 C0        -239.7554  -140.3465   350.2162 C0            1 RES     
   10990 C0        -241.1220  -140.3091   349.9840 C0            1 RES     
   10991 S1        -242.0375  -141.7203   350.6372 S1            1 RES     
   10992 H2        -237.0827  -145.1256   351.8203 H2            1 RES     
   10993 H2        -239.0641  -139.6435   349.7844 H2            1 RES     
   10994 N3        -237.3441  -148.9203   353.2751 N3            1 RES     
   10995 C0        -237.6238  -147.6244   352.9562 C0            1 RES     
   10996 C0        -238.8637  -147.2522   352.3988 C0            1 RES     
   10997 C0        -239.8033  -148.2770   352.1984 C0            1 RES     
   10998 N3        -241.0423  -148.0928   351.6694 N3            1 RES     
   10999 S1        -241.6558  -149.6284   351.6513 S1            1 RES     
   11000 N3        -240.4397  -150.5494   352.2845 N3            1 RES     
   11001 C0        -239.4805  -149.6201   352.5302 C0            1 RES     
   11002 C0        -238.2392  -149.9255   353.0727 C0            1 RES     
   11003 H4        -236.8835  -146.8738   353.1703 H4            1 RES     
   11004 C5        -233.0702  -150.6594   350.3178 C5            1 RES     
   11005 C5        -234.0154  -149.6199   349.7136 C5            1 RES     
   11006 C5        -234.5650  -148.6126   350.7393 C5            1 RES     
   11007 C5        -233.4823  -147.7526   351.4207 C5            1 RES     
   11008 C5        -234.1270  -146.7427   352.3857 C5            1 RES     
   11009 C5        -233.0952  -146.0064   353.2519 C5            1 RES     
   11010 C5        -233.7547  -145.0538   354.2775 C5            1 RES     
   11011 C5        -234.2168  -143.6784   353.7033 C5            1 RES     
   11012 C5        -235.7421  -143.3625   353.7854 C5            1 RES     
   11013 C5        -236.2695  -143.3658   355.2500 C5            1 RES     
   11014 C5        -237.7804  -143.6528   355.3315 C5            1 RES     
   11015 C5        -238.1841  -144.1638   356.7312 C5            1 RES     
   11016 C5        -239.6207  -144.7167   356.7238 C5            1 RES     
   11017 C5        -239.9758  -145.5075   357.9958 C5            1 RES     
   11018 C5        -240.0016  -144.6582   359.2617 C5            1 RES     
   11019 C5        -235.9890  -142.0254   353.0136 C5            1 RES     
   11020 C0        -237.3774  -141.4363   352.5517 C0            1 RES     
   11021 C5        -237.0788  -139.9139   352.2022 C5            1 RES     
   11022 C5        -237.5407  -138.8896   353.2921 C5            1 RES     
   11023 C5        -239.0377  -138.4574   353.1533 C5            1 RES     
   11024 C5        -239.3453  -137.4793   351.9951 C5            1 RES     
   11025 C5        -240.8451  -137.2162   351.7685 C5            1 RES     
   11026 C5        -241.5403  -136.3691   352.8514 C5            1 RES     
   11027 C5        -241.0002  -134.9307   353.0037 C5            1 RES     
   11028 C5        -241.1181  -134.0946   351.7251 C5            1 RES     
   11029 C5        -236.5703  -137.6738   353.4630 C5            1 RES     
   11030 C5        -236.0542  -136.9774   352.1773 C5            1 RES     
   11031 C5        -235.2835  -135.6682   352.4614 C5            1 RES     
   11032 C5        -234.0366  -135.8490   353.3479 C5            1 RES     
   11033 C5        -233.2769  -134.5329   353.6101 C5            1 RES     
   11034 C5        -232.6200  -133.9426   352.3471 C5            1 RES     
   11035 C5        -231.8632  -132.6279   352.6087 C5            1 RES     
   11036 C5        -230.6703  -132.7815   353.5534 C5            1 RES     
   11037 H6        -232.1507  -150.1806   350.7114 H6            1 RES     
   11038 H6        -232.7659  -151.3813   349.5301 H6            1 RES     
   11039 H6        -233.5761  -151.2187   351.1332 H6            1 RES     
   11040 H6        -233.4935  -149.0791   348.8958 H6            1 RES     
   11041 H6        -234.8805  -150.1628   349.2722 H6            1 RES     
   11042 H6        -235.2761  -147.9433   350.2081 H6            1 RES     
   11043 H6        -235.1326  -149.1711   351.5161 H6            1 RES     
   11044 H6        -232.8848  -147.2073   350.6578 H6            1 RES     
   11045 H6        -232.8083  -148.4192   351.9989 H6            1 RES     
   11046 H6        -234.7480  -146.0215   351.8124 H6            1 RES     
   11047 H6        -234.7658  -147.3181   353.0841 H6            1 RES     
   11048 H6        -232.5538  -146.7903   353.8267 H6            1 RES     
   11049 H6        -232.3483  -145.4595   352.6370 H6            1 RES     
   11050 H6        -234.5560  -145.6129   354.8016 H6            1 RES     
   11051 H6        -232.9824  -144.8218   355.0413 H6            1 RES     
   11052 H6        -233.9088  -143.6493   352.6339 H6            1 RES     
   11053 H6        -233.6479  -142.8654   354.2043 H6            1 RES     
   11054 H6        -236.1708  -144.2037   353.2884 H6            1 RES     
   11055 H6        -235.7937  -144.2156   355.7689 H6            1 RES     
   11056 H6        -235.9706  -142.4588   355.8187 H6            1 RES     
   11057 H6        -238.3794  -142.7732   355.0139 H6            1 RES     
   11058 H6        -237.9917  -144.4926   354.6368 H6            1 RES     
   11059 H6        -238.0558  -143.3665   357.4943 H6            1 RES     
   11060 H6        -237.5148  -145.0135   356.9927 H6            1 RES     
   11061 H6        -240.3493  -143.8966   356.5507 H6            1 RES     
   11062 H6        -239.7087  -145.4414   355.8834 H6            1 RES     
   11063 H6        -239.2528  -146.3431   358.1288 H6            1 RES     
   11064 H6        -240.9853  -145.9523   357.8581 H6            1 RES     
   11065 H6        -240.7461  -143.8416   359.1583 H6            1 RES     
   11066 H6        -239.0012  -144.2292   359.4740 H6            1 RES     
   11067 H6        -240.2934  -145.2985   360.1219 H6            1 RES     
   11068 H6        -235.3973  -142.0651   352.0720 H6            1 RES     
   11069 H6        -235.5038  -141.2660   353.6704 H6            1 RES     
   11070 H6        -235.9813  -139.8032   352.0763 H6            1 RES     
   11071 H6        -237.4215  -139.5990   351.2069 H6            1 RES     
   11072 H6        -237.4791  -139.4209   354.2697 H6            1 RES     
   11073 H6        -239.6503  -139.3784   353.0428 H6            1 RES     
   11074 H6        -239.3517  -137.9585   354.0951 H6            1 RES     
   11075 H6        -238.8496  -136.5065   352.1568 H6            1 RES     
   11076 H6        -238.9479  -137.9027   351.0610 H6            1 RES     
   11077 H6        -240.9680  -136.6998   350.7933 H6            1 RES     
   11078 H6        -241.3707  -138.1883   351.6802 H6            1 RES     
   11079 H6        -241.4684  -136.8879   353.8298 H6            1 RES     
   11080 H6        -242.6187  -136.3014   352.5872 H6            1 RES     
   11081 H6        -239.9427  -134.9414   353.3383 H6            1 RES     
   11082 H6        -241.5950  -134.4266   353.7958 H6            1 RES     
   11083 H6        -242.1741  -134.0533   351.3828 H6            1 RES     
   11084 H6        -240.7715  -133.0588   351.9259 H6            1 RES     
   11085 H6        -240.4839  -134.5075   350.9141 H6            1 RES     
   11086 H6        -235.6651  -138.0514   353.9842 H6            1 RES     
   11087 H6        -237.0563  -136.9371   354.1394 H6            1 RES     
   11088 H6        -236.8727  -136.7023   351.4969 H6            1 RES     
   11089 H6        -235.3964  -137.6686   351.6133 H6            1 RES     
   11090 H6        -234.9821  -135.2562   351.4763 H6            1 RES     
   11091 H6        -235.9710  -134.9399   352.9453 H6            1 RES     
   11092 H6        -233.3460  -136.5907   352.8917 H6            1 RES     
   11093 H6        -234.3608  -136.2331   354.3377 H6            1 RES     
   11094 H6        -233.9682  -133.7885   354.0630 H6            1 RES     
   11095 H6        -232.4817  -134.7630   354.3491 H6            1 RES     
   11096 H6        -233.4030  -133.7137   351.5963 H6            1 RES     
   11097 H6        -231.9207  -134.6873   351.9080 H6            1 RES     
   11098 H6        -231.4776  -132.2559   351.6343 H6            1 RES     
   11099 H6        -232.5616  -131.8654   353.0165 H6            1 RES     
   11100 H6        -230.9966  -133.0853   354.5683 H6            1 RES     
   11101 H6        -230.1472  -131.8060   353.6448 H6            1 RES     
   11102 H6        -229.9550  -133.5307   353.1532 H6            1 RES     
   11103 C0        -235.4806  -154.2260   353.5551 C0            1 RES     
   11104 C0        -236.4252  -155.4236   353.6620 C0            1 RES     
   11105 C0        -237.6952  -155.0310   353.9233 C0            1 RES     
   11106 S1        -238.7826  -156.3017   353.9888 S1            1 RES     
   11107 C0        -237.5725  -157.4549   353.6604 C0            1 RES     
   11108 C0        -236.3466  -156.7993   353.4547 C0            1 RES     
   11109 C0        -237.7669  -153.6108   353.8975 C0            1 RES     
   11110 C0        -236.5686  -153.1435   353.6286 C0            1 RES     
   11111 C0        -236.6058  -151.7268   353.3170 C0            1 RES     
   11112 C0        -237.9008  -151.2404   353.4139 C0            1 RES     
   11113 S1        -239.1315  -152.4639   353.9084 S1            1 RES     
   11114 H2        -235.4739  -157.3156   353.1160 H2            1 RES     
   11115 H2        -235.7882  -151.1523   352.9170 H2            1 RES     
   11116 N3        -236.7731  -161.1360   353.6648 N3            1 RES     
   11117 C0        -236.6487  -159.7796   353.7288 C0            1 RES     
   11118 C0        -237.7599  -158.9277   353.5677 C0            1 RES     
   11119 C0        -239.0047  -159.5415   353.3505 C0            1 RES     
   11120 N3        -240.1735  -158.8699   353.1723 N3            1 RES     
   11121 S1        -241.2580  -160.0956   352.9347 S1            1 RES     
   11122 N3        -240.3405  -161.4645   353.0446 N3            1 RES     
   11123 C0        -239.1029  -160.9568   353.2779 C0            1 RES     
   11124 C0        -237.9701  -161.7437   353.4402 C0            1 RES     
   11125 H4        -235.6790  -159.3645   353.9398 H4            1 RES     
   11126 C5        -233.7782  -163.0619   349.4985 C5            1 RES     
   11127 C5        -234.3996  -161.6691   349.3828 C5            1 RES     
   11128 C5        -234.4341  -160.8942   350.7120 C5            1 RES     
   11129 C5        -233.0432  -160.6121   351.3135 C5            1 RES     
   11130 C5        -233.1741  -159.7901   352.6074 C5            1 RES     
   11131 C5        -231.8458  -159.6608   353.3662 C5            1 RES     
   11132 C5        -232.0011  -158.9048   354.7073 C5            1 RES     
   11133 C5        -232.0561  -157.3498   354.5896 C5            1 RES     
   11134 C5        -233.3626  -156.6562   355.0847 C5            1 RES     
   11135 C5        -233.6503  -156.9395   356.5880 C5            1 RES     
   11136 C5        -235.1436  -156.8008   356.9384 C5            1 RES     
   11137 C5        -235.4935  -157.5639   358.2339 C5            1 RES     
   11138 C5        -237.0182  -157.6631   358.4214 C5            1 RES     
   11139 C5        -237.4336  -158.6582   359.5199 C5            1 RES     
   11140 C5        -236.9982  -158.2453   360.9215 C5            1 RES     
   11141 C5        -233.2574  -155.1389   354.7224 C5            1 RES     
   11142 C0        -234.4217  -154.0749   354.7359 C0            1 RES     
   11143 C5        -233.6869  -152.6653   354.6936 C5            1 RES     
   11144 C5        -233.6250  -151.9182   356.0678 C5            1 RES     
   11145 C5        -234.8975  -151.0616   356.3747 C5            1 RES     
   11146 C5        -235.0222  -149.7423   355.5769 C5            1 RES     
   11147 C5        -236.3657  -149.0137   355.7618 C5            1 RES     
   11148 C5        -236.5812  -148.3609   357.1406 C5            1 RES     
   11149 C5        -235.5786  -147.2427   357.4989 C5            1 RES     
   11150 C5        -235.5905  -146.0713   356.5113 C5            1 RES     
   11151 C5        -232.2923  -151.1298   356.2948 C5            1 RES     
   11152 C5        -231.7600  -150.2622   355.1250 C5            1 RES     
   11153 C5        -230.5667  -149.3656   355.5259 C5            1 RES     
   11154 C5        -229.3393  -150.1408   356.0414 C5            1 RES     
   11155 C5        -228.1570  -149.2284   356.4256 C5            1 RES     
   11156 C5        -227.5254  -148.5040   355.2209 C5            1 RES     
   11157 C5        -226.3465  -147.5918   355.6048 C5            1 RES     
   11158 C5        -225.1522  -148.3441   356.1938 C5            1 RES     
   11159 H6        -232.7064  -162.9980   349.7755 H6            1 RES     
   11160 H6        -233.8444  -163.5766   348.5164 H6            1 RES     
   11161 H6        -234.3214  -163.6693   350.2532 H6            1 RES     
   11162 H6        -233.8479  -161.0823   348.6180 H6            1 RES     
   11163 H6        -235.4487  -161.7929   349.0333 H6            1 RES     
   11164 H6        -234.9498  -159.9271   350.5260 H6            1 RES     
   11165 H6        -235.0401  -161.4723   351.4442 H6            1 RES     
   11166 H6        -232.4118  -160.0584   350.5847 H6            1 RES     
   11167 H6        -232.5547  -161.5800   351.5529 H6            1 RES     
   11168 H6        -233.5944  -158.7886   352.3734 H6            1 RES     
   11169 H6        -233.8631  -160.3407   353.2775 H6            1 RES     
   11170 H6        -231.5204  -160.6977   353.6049 H6            1 RES     
   11171 H6        -231.0538  -159.1911   352.7440 H6            1 RES     
   11172 H6        -232.8606  -159.3439   355.2530 H6            1 RES     
   11173 H6        -231.0965  -159.1334   355.3100 H6            1 RES     
   11174 H6        -231.9091  -157.0969   353.5154 H6            1 RES     
   11175 H6        -231.1854  -156.9133   355.1252 H6            1 RES     
   11176 H6        -234.1114  -157.1591   354.5146 H6            1 RES     
   11177 H6        -233.4158  -158.0018   356.7732 H6            1 RES     
   11178 H6        -232.9907  -156.3610   357.2704 H6            1 RES     
   11179 H6        -235.4550  -155.7356   356.9783 H6            1 RES     
   11180 H6        -235.7168  -157.3057   356.1327 H6            1 RES     
   11181 H6        -235.0022  -157.0947   359.1131 H6            1 RES     
   11182 H6        -235.1146  -158.6052   358.1321 H6            1 RES     
   11183 H6        -237.4499  -156.6581   358.6134 H6            1 RES     
   11184 H6        -237.4587  -158.0548   357.4771 H6            1 RES     
   11185 H6        -237.0178  -159.6642   359.2877 H6            1 RES     
   11186 H6        -238.5422  -158.7406   359.5132 H6            1 RES     
   11187 H6        -237.4363  -157.2592   361.1821 H6            1 RES     
   11188 H6        -235.8929  -158.1966   360.9972 H6            1 RES     
   11189 H6        -237.3624  -159.0001   361.6513 H6            1 RES     
   11190 H6        -232.8506  -155.0660   353.6892 H6            1 RES     
   11191 H6        -232.4607  -154.7735   355.4118 H6            1 RES     
   11192 H6        -232.6440  -152.8359   354.3531 H6            1 RES     
   11193 H6        -234.0417  -151.9898   353.9029 H6            1 RES     
   11194 H6        -233.6068  -152.7072   356.8546 H6            1 RES     
   11195 H6        -235.7901  -151.6987   356.1931 H6            1 RES     
   11196 H6        -234.8928  -150.7929   357.4528 H6            1 RES     
   11197 H6        -234.2142  -149.0399   355.8453 H6            1 RES     
   11198 H6        -234.9230  -149.9676   354.5049 H6            1 RES     
   11199 H6        -236.4457  -148.2219   354.9877 H6            1 RES     
   11200 H6        -237.1911  -149.7285   355.5696 H6            1 RES     
   11201 H6        -236.5492  -149.1415   357.9287 H6            1 RES     
   11202 H6        -237.6018  -147.9185   357.1495 H6            1 RES     
   11203 H6        -234.5488  -147.6478   357.5747 H6            1 RES     
   11204 H6        -235.8552  -146.8466   358.4998 H6            1 RES     
   11205 H6        -236.6098  -145.6364   356.4351 H6            1 RES     
   11206 H6        -234.8952  -145.2808   356.8651 H6            1 RES     
   11207 H6        -235.2496  -146.3896   355.5049 H6            1 RES     
   11208 H6        -231.5002  -151.8820   356.4957 H6            1 RES     
   11209 H6        -232.4063  -150.5178   357.2162 H6            1 RES     
   11210 H6        -232.5276  -149.5816   354.7301 H6            1 RES     
   11211 H6        -231.4549  -150.9139   354.2820 H6            1 RES     
   11212 H6        -230.2870  -148.7855   354.6225 H6            1 RES     
   11213 H6        -230.8985  -148.6482   356.3087 H6            1 RES     
   11214 H6        -229.0052  -150.8794   355.2810 H6            1 RES     
   11215 H6        -229.6304  -150.6903   356.9609 H6            1 RES     
   11216 H6        -228.4913  -148.4862   357.1835 H6            1 RES     
   11217 H6        -227.3880  -149.8785   356.8918 H6            1 RES     
   11218 H6        -228.2852  -147.8549   354.7405 H6            1 RES     
   11219 H6        -227.1818  -149.2527   354.4740 H6            1 RES     
   11220 H6        -225.9999  -147.0751   354.6832 H6            1 RES     
   11221 H6        -226.6877  -146.8179   356.3260 H6            1 RES     
   11222 H6        -225.4151  -148.8269   357.1564 H6            1 RES     
   11223 H6        -224.3276  -147.6264   356.3903 H6            1 RES     
   11224 H6        -224.7896  -149.1128   355.4792 H6            1 RES     
   11225 C0        -236.7565  -166.5910   352.2707 C0            1 RES     
   11226 C0        -238.0202  -167.4512   352.3049 C0            1 RES     
   11227 C0        -239.0380  -166.8117   352.9298 C0            1 RES     
   11228 S1        -240.4649  -167.6865   352.9400 S1            1 RES     
   11229 C0        -239.7649  -168.9846   352.0874 C0            1 RES     
   11230 C0        -238.4326  -168.6699   351.7698 C0            1 RES     
   11231 C0        -238.6371  -165.4861   353.2532 C0            1 RES     
   11232 C0        -237.4019  -165.3173   352.8381 C0            1 RES     
   11233 C0        -237.0101  -163.9208   352.8826 C0            1 RES     
   11234 C0        -238.0431  -163.1405   353.3795 C0            1 RES     
   11235 S1        -239.5279  -164.0574   353.8389 S1            1 RES     
   11236 H2        -237.8373  -169.2882   351.1322 H2            1 RES     
   11237 H2        -236.1128  -163.5086   352.4542 H2            1 RES     
   11238 N3        -240.2403  -172.5750   351.0517 N3            1 RES     
   11239 C0        -239.6651  -171.3891   351.4010 C0            1 RES     
   11240 C0        -240.4415  -170.2509   351.6980 C0            1 RES     
   11241 C0        -241.8368  -170.3983   351.6295 C0            1 RES     
   11242 N3        -242.7293  -169.4036   351.8812 N3            1 RES     
   11243 S1        -244.1810  -170.1494   351.6145 S1            1 RES     
   11244 N3        -243.7641  -171.6907   351.1920 N3            1 RES     
   11245 C0        -242.4083  -171.6430   351.2525 C0            1 RES     
   11246 C0        -241.5901  -172.7281   350.9670 C0            1 RES     
   11247 H4        -238.5931  -171.3441   351.4792 H4            1 RES     
   11248 C5        -238.6698  -173.9582   345.9865 C5            1 RES     
   11249 C5        -238.8035  -172.4767   346.3422 C5            1 RES     
   11250 C5        -238.3921  -172.1476   347.7883 C5            1 RES     
   11251 C5        -236.9167  -172.4570   348.1098 C5            1 RES     
   11252 C5        -236.5846  -172.0475   349.5552 C5            1 RES     
   11253 C5        -235.1961  -172.5249   350.0039 C5            1 RES     
   11254 C5        -234.9021  -172.1828   351.4840 C5            1 RES     
   11255 C5        -234.4538  -170.7117   351.7482 C5            1 RES     
   11256 C5        -235.3729  -169.8553   352.6728 C5            1 RES     
   11257 C5        -235.5246  -170.4732   354.0934 C5            1 RES     
   11258 C5        -236.8224  -170.0291   354.7936 C5            1 RES     
   11259 C5        -237.2204  -171.0072   355.9197 C5            1 RES     
   11260 C5        -238.6494  -170.7240   356.4173 C5            1 RES     
   11261 C5        -239.2131  -171.8381   357.3175 C5            1 RES     
   11262 C5        -238.4734  -171.9933   358.6417 C5            1 RES     
   11263 C5        -234.8220  -168.3921   352.6608 C5            1 RES     
   11264 C0        -235.5531  -167.0962   353.1843 C0            1 RES     
   11265 C5        -234.4057  -166.0021   353.3080 C5            1 RES     
   11266 C5        -233.9073  -165.7389   354.7684 C5            1 RES     
   11267 C5        -234.7670  -164.6880   355.5454 C5            1 RES     
   11268 C5        -234.5573  -163.2136   355.1270 C5            1 RES     
   11269 C5        -235.5429  -162.2241   355.7747 C5            1 RES     
   11270 C5        -235.3339  -161.9704   357.2799 C5            1 RES     
   11271 C5        -233.9773  -161.3352   357.6541 C5            1 RES     
   11272 C5        -233.7380  -159.9722   356.9962 C5            1 RES     
   11273 C5        -232.3706  -165.4596   354.8671 C5            1 RES     
   11274 C5        -231.7501  -164.4740   353.8433 C5            1 RES     
   11275 C5        -230.2832  -164.1074   354.1631 C5            1 RES     
   11276 C5        -229.3233  -165.3119   354.1931 C5            1 RES     
   11277 C5        -227.8637  -164.9228   354.5033 C5            1 RES     
   11278 C5        -227.2030  -164.0858   353.3907 C5            1 RES     
   11279 C5        -225.7466  -163.6960   353.7013 C5            1 RES     
   11280 C5        -224.7996  -164.8917   353.8137 C5            1 RES     
   11281 H6        -237.6100  -174.2822   346.0220 H6            1 RES     
   11282 H6        -239.0401  -174.1226   344.9521 H6            1 RES     
   11283 H6        -239.2724  -174.5814   346.6808 H6            1 RES     
   11284 H6        -238.2013  -171.8717   345.6316 H6            1 RES     
   11285 H6        -239.8722  -172.1925   346.2191 H6            1 RES     
   11286 H6        -238.5783  -171.0644   347.9545 H6            1 RES     
   11287 H6        -239.0466  -172.7199   348.4824 H6            1 RES     
   11288 H6        -236.2462  -171.9152   347.4075 H6            1 RES     
   11289 H6        -236.7487  -173.5490   348.0001 H6            1 RES     
   11290 H6        -236.6771  -170.9456   349.6625 H6            1 RES     
   11291 H6        -237.3161  -172.5532   350.2156 H6            1 RES     
   11292 H6        -235.2033  -173.6340   349.9142 H6            1 RES     
   11293 H6        -234.3887  -172.1363   349.3467 H6            1 RES     
   11294 H6        -235.7731  -172.5021   352.0912 H6            1 RES     
   11295 H6        -234.0496  -172.8225   351.7969 H6            1 RES     
   11296 H6        -234.3833  -170.2075   350.7581 H6            1 RES     
   11297 H6        -233.4216  -170.7144   352.1606 H6            1 RES     
   11298 H6        -236.3183  -169.9375   352.1848 H6            1 RES     
   11299 H6        -235.6324  -171.5642   353.9677 H6            1 RES     
   11300 H6        -234.6216  -170.3297   354.7254 H6            1 RES     
   11301 H6        -236.7537  -168.9796   355.1503 H6            1 RES     
   11302 H6        -237.6376  -170.0936   354.0428 H6            1 RES     
   11303 H6        -236.4831  -170.9738   356.7502 H6            1 RES     
   11304 H6        -237.2269  -172.0357   355.4948 H6            1 RES     
   11305 H6        -238.6916  -169.7403   356.9308 H6            1 RES     
   11306 H6        -239.3226  -170.6818   355.5318 H6            1 RES     
   11307 H6        -239.1917  -172.8065   356.7693 H6            1 RES     
   11308 H6        -240.2756  -171.5998   357.5416 H6            1 RES     
   11309 H6        -238.5182  -171.0452   359.2171 H6            1 RES     
   11310 H6        -237.4156  -172.2818   358.4756 H6            1 RES     
   11311 H6        -238.9613  -172.7944   359.2377 H6            1 RES     
   11312 H6        -234.5632  -168.1376   351.6089 H6            1 RES     
   11313 H6        -233.8609  -168.4840   353.2187 H6            1 RES     
   11314 H6        -233.5372  -166.3517   352.7112 H6            1 RES     
   11315 H6        -234.6234  -165.0537   352.7978 H6            1 RES     
   11316 H6        -234.0419  -166.6953   355.3242 H6            1 RES     
   11317 H6        -235.8366  -164.9661   355.4259 H6            1 RES     
   11318 H6        -234.5223  -164.7592   356.6268 H6            1 RES     
   11319 H6        -233.5328  -162.8775   355.3629 H6            1 RES     
   11320 H6        -234.6899  -163.1338   354.0381 H6            1 RES     
   11321 H6        -235.4632  -161.2514   355.2454 H6            1 RES     
   11322 H6        -236.5770  -162.5891   355.6119 H6            1 RES     
   11323 H6        -235.4527  -162.9234   357.8358 H6            1 RES     
   11324 H6        -236.1378  -161.2816   357.6215 H6            1 RES     
   11325 H6        -233.1405  -162.0172   357.3992 H6            1 RES     
   11326 H6        -233.9635  -161.1883   358.7557 H6            1 RES     
   11327 H6        -234.5552  -159.2659   357.2553 H6            1 RES     
   11328 H6        -232.7775  -159.5488   357.3588 H6            1 RES     
   11329 H6        -233.6668  -160.0645   355.8931 H6            1 RES     
   11330 H6        -231.8532  -166.4285   354.7029 H6            1 RES     
   11331 H6        -232.1447  -165.1378   355.9071 H6            1 RES     
   11332 H6        -232.2957  -163.5205   353.8016 H6            1 RES     
   11333 H6        -231.8000  -164.9086   352.8249 H6            1 RES     
   11334 H6        -229.9564  -163.3915   353.3810 H6            1 RES     
   11335 H6        -230.2449  -163.5875   355.1457 H6            1 RES     
   11336 H6        -229.3633  -165.8584   353.2261 H6            1 RES     
   11337 H6        -229.6483  -166.0013   355.0001 H6            1 RES     
   11338 H6        -227.8229  -164.3723   355.4689 H6            1 RES     
   11339 H6        -227.2967  -165.8697   354.6192 H6            1 RES     
   11340 H6        -227.7636  -163.1384   353.2590 H6            1 RES     
   11341 H6        -227.2357  -164.6482   352.4320 H6            1 RES     
   11342 H6        -225.3810  -163.0515   352.8722 H6            1 RES     
   11343 H6        -225.7069  -163.1038   354.6411 H6            1 RES     
   11344 H6        -225.0702  -165.5408   354.6707 H6            1 RES     
   11345 H6        -223.7647  -164.5251   353.9814 H6            1 RES     
   11346 H6        -224.8167  -165.4871   352.8766 H6            1 RES     
   11347 C0        -242.2308  -177.1574   348.4553 C0            1 RES     
   11348 C0        -243.6903  -177.5982   348.5714 C0            1 RES     
   11349 C0        -244.3399  -176.9104   349.5411 C0            1 RES     
   11350 S1        -245.9599  -177.3116   349.6679 S1            1 RES     
   11351 C0        -245.8572  -178.4454   348.4006 C0            1 RES     
   11352 C0        -244.5545  -178.4395   347.8736 C0            1 RES     
   11353 C0        -243.4806  -175.9062   350.0663 C0            1 RES     
   11354 C0        -242.3305  -175.9778   349.4349 C0            1 RES     
   11355 C0        -241.4953  -174.8247   349.7149 C0            1 RES     
   11356 C0        -242.1302  -173.9665   350.5998 C0            1 RES     
   11357 S1        -243.7552  -174.5213   351.1547 S1            1 RES     
   11358 H2        -244.2938  -178.9853   346.9920 H2            1 RES     
   11359 H2        -240.5815  -174.5749   349.2038 H2            1 RES     
   11360 N3        -247.6376  -181.2900   346.6895 N3            1 RES     
   11361 C0        -246.6584  -180.4702   347.1673 C0            1 RES     
   11362 C0        -246.9633  -179.2985   347.8889 C0            1 RES     
   11363 C0        -248.3234  -179.0208   348.1041 C0            1 RES     
   11364 N3        -248.7905  -177.9344   348.7754 N3            1 RES     
   11365 S1        -250.4297  -178.1297   348.6760 S1            1 RES     
   11366 N3        -250.6115  -179.5320   347.8225 N3            1 RES     
   11367 C0        -249.3225  -179.8873   347.5855 C0            1 RES     
   11368 C0        -248.9595  -181.0257   346.8777 C0            1 RES     
   11369 H4        -245.6326  -180.7533   347.0103 H4            1 RES     
   11370 C5        -247.3418  -181.5136   341.2215 C5            1 RES     
   11371 C5        -246.9250  -180.2261   341.9342 C5            1 RES     
   11372 C5        -246.2293  -180.4642   343.2862 C5            1 RES     
   11373 C5        -244.9105  -181.2559   343.1857 C5            1 RES     
   11374 C5        -244.2622  -181.3980   344.5737 C5            1 RES     
   11375 C5        -243.0625  -182.3561   344.5738 C5            1 RES     
   11376 C5        -242.4671  -182.5592   345.9875 C5            1 RES     
   11377 C5        -241.5237  -181.4180   346.4800 C5            1 RES     
   11378 C5        -241.9672  -180.6474   347.7616 C5            1 RES     
   11379 C5        -242.1145  -181.5853   348.9952 C5            1 RES     
   11380 C5        -243.0796  -181.0193   350.0536 C5            1 RES     
   11381 C5        -243.6177  -182.1309   350.9799 C5            1 RES     
   11382 C5        -244.7869  -181.6159   351.8387 C5            1 RES     
   11383 C5        -245.5563  -182.7390   352.5570 C5            1 RES     
   11384 C5        -244.7321  -183.4763   353.6066 C5            1 RES     
   11385 C5        -240.9692  -179.4616   347.9679 C5            1 RES     
   11386 C0        -241.1478  -178.2248   348.9304 C0            1 RES     
   11387 C5        -239.6970  -177.5837   349.0445 C5            1 RES     
   11388 C5        -238.9400  -177.9106   350.3751 C5            1 RES     
   11389 C5        -239.2842  -176.9358   351.5491 C5            1 RES     
   11390 C5        -238.6579  -175.5248   351.4504 C5            1 RES     
   11391 C5        -239.1580  -174.5329   352.5163 C5            1 RES     
   11392 C5        -238.6678  -174.8002   353.9522 C5            1 RES     
   11393 C5        -237.1390  -174.7107   354.1489 C5            1 RES     
   11394 C5        -236.5557  -173.3398   353.7910 C5            1 RES     
   11395 C5        -237.3999  -178.1163   350.1875 C5            1 RES     
   11396 C5        -236.6375  -177.0905   349.3095 C5            1 RES     
   11397 C5        -235.1026  -177.2615   349.3672 C5            1 RES     
   11398 C5        -234.6027  -178.6410   348.8980 C5            1 RES     
   11399 C5        -233.0685  -178.7867   348.9534 C5            1 RES     
   11400 C5        -232.3304  -177.8819   347.9477 C5            1 RES     
   11401 C5        -230.7989  -178.0260   348.0045 C5            1 RES     
   11402 C5        -230.2966  -179.4180   347.6182 C5            1 RES     
   11403 H6        -246.4558  -182.1181   340.9407 H6            1 RES     
   11404 H6        -247.8869  -181.2570   340.2882 H6            1 RES     
   11405 H6        -248.0135  -182.1169   341.8685 H6            1 RES     
   11406 H6        -246.2621  -179.6345   341.2676 H6            1 RES     
   11407 H6        -247.8448  -179.6298   342.1248 H6            1 RES     
   11408 H6        -246.0201  -179.4704   343.7383 H6            1 RES     
   11409 H6        -246.9324  -181.0063   343.9565 H6            1 RES     
   11410 H6        -244.2037  -180.7438   342.4968 H6            1 RES     
   11411 H6        -245.1316  -182.2691   342.7890 H6            1 RES     
   11412 H6        -243.9677  -180.3963   344.9533 H6            1 RES     
   11413 H6        -245.0197  -181.8477   345.2450 H6            1 RES     
   11414 H6        -243.4498  -183.3414   344.2316 H6            1 RES     
   11415 H6        -242.2724  -182.0356   343.8610 H6            1 RES     
   11416 H6        -243.3004  -182.7837   346.6835 H6            1 RES     
   11417 H6        -241.8403  -183.4751   345.9421 H6            1 RES     
   11418 H6        -241.4294  -180.6874   345.6453 H6            1 RES     
   11419 H6        -240.5038  -181.8314   346.6370 H6            1 RES     
   11420 H6        -242.9447  -180.3139   347.4938 H6            1 RES     
   11421 H6        -242.5949  -182.5152   348.6457 H6            1 RES     
   11422 H6        -241.1360  -181.8929   349.4231 H6            1 RES     
   11423 H6        -242.6172  -180.1839   350.6206 H6            1 RES     
   11424 H6        -243.9667  -180.6293   349.5120 H6            1 RES     
   11425 H6        -242.8024  -182.5507   351.6072 H6            1 RES     
   11426 H6        -244.0246  -182.9447   350.3393 H6            1 RES     
   11427 H6        -244.4277  -180.8552   352.5637 H6            1 RES     
   11428 H6        -245.5251  -181.1288   351.1626 H6            1 RES     
   11429 H6        -245.9346  -183.4696   351.8074 H6            1 RES     
   11430 H6        -246.4369  -182.2880   353.0640 H6            1 RES     
   11431 H6        -244.3786  -182.7656   354.3825 H6            1 RES     
   11432 H6        -243.8644  -183.9888   353.1439 H6            1 RES     
   11433 H6        -245.3696  -184.2457   354.0932 H6            1 RES     
   11434 H6        -240.7909  -178.9939   346.9740 H6            1 RES     
   11435 H6        -240.0250  -179.9791   348.2576 H6            1 RES     
   11436 H6        -239.0865  -177.9727   348.2027 H6            1 RES     
   11437 H6        -239.6568  -176.5064   348.8324 H6            1 RES     
   11438 H6        -239.3050  -178.9096   350.7078 H6            1 RES     
   11439 H6        -240.3910  -176.8543   351.6121 H6            1 RES     
   11440 H6        -238.9279  -177.3861   352.5003 H6            1 RES     
   11441 H6        -237.5576  -175.5747   351.5214 H6            1 RES     
   11442 H6        -238.9077  -175.0960   350.4690 H6            1 RES     
   11443 H6        -238.8351  -173.5114   352.2248 H6            1 RES     
   11444 H6        -240.2666  -174.5281   352.5099 H6            1 RES     
   11445 H6        -239.0170  -175.8005   354.2821 H6            1 RES     
   11446 H6        -239.1413  -174.0446   354.6172 H6            1 RES     
   11447 H6        -236.6205  -175.4947   353.5600 H6            1 RES     
   11448 H6        -236.9229  -174.9026   355.2221 H6            1 RES     
   11449 H6        -237.0473  -172.5402   354.3852 H6            1 RES     
   11450 H6        -235.4683  -173.3290   354.0165 H6            1 RES     
   11451 H6        -236.6746  -173.1213   352.7100 H6            1 RES     
   11452 H6        -237.2619  -179.0994   349.6893 H6            1 RES     
   11453 H6        -236.9365  -178.1901   351.1955 H6            1 RES     
   11454 H6        -236.8358  -176.0534   349.6157 H6            1 RES     
   11455 H6        -236.9711  -177.1756   348.2559 H6            1 RES     
   11456 H6        -234.6698  -176.4702   348.7210 H6            1 RES     
   11457 H6        -234.7565  -177.0846   350.4094 H6            1 RES     
   11458 H6        -234.9570  -178.8462   347.8647 H6            1 RES     
   11459 H6        -235.0215  -179.4159   349.5735 H6            1 RES     
   11460 H6        -232.7124  -178.5775   349.9862 H6            1 RES     
   11461 H6        -232.8376  -179.8453   348.7142 H6            1 RES     
   11462 H6        -232.5574  -176.8198   348.1707 H6            1 RES     
   11463 H6        -232.6820  -178.1061   346.9169 H6            1 RES     
   11464 H6        -230.3602  -177.2972   347.2884 H6            1 RES     
   11465 H6        -230.4335  -177.7709   349.0228 H6            1 RES     
   11466 H6        -230.6443  -180.1859   348.3382 H6            1 RES     
   11467 H6        -229.1860  -179.4231   347.6293 H6            1 RES     
   11468 H6        -230.6416  -179.6832   346.5966 H6            1 RES     
   11469 C0        -251.3793  -184.1586   343.6118 C0            1 RES     
   11470 C0        -252.8708  -184.1850   343.9474 C0            1 RES     
   11471 C0        -253.1125  -183.6576   345.1716 C0            1 RES     
   11472 S1        -254.7391  -183.6058   345.5627 S1            1 RES     
   11473 C0        -255.1973  -184.3000   344.0761 C0            1 RES     
   11474 C0        -254.0540  -184.5068   343.2855 C0            1 RES     
   11475 C0        -251.9040  -183.1351   345.7094 C0            1 RES     
   11476 C0        -250.9435  -183.3391   344.8363 C0            1 RES     
   11477 C0        -249.7424  -182.6020   345.1823 C0            1 RES     
   11478 C0        -249.9258  -181.8981   346.3628 C0            1 RES     
   11479 S1        -251.5480  -182.1106   347.1241 S1            1 RES     
   11480 H2        -254.1156  -184.8209   342.2654 H2            1 RES     
   11481 H2        -248.8787  -182.4812   344.5513 H2            1 RES     
   11482 N3        -258.0422  -185.8985   342.1943 N3            1 RES     
   11483 C0        -256.7896  -185.5644   342.6171 C0            1 RES     
   11484 C0        -256.5840  -184.6189   343.6420 C0            1 RES     
   11485 C0        -257.7304  -184.0457   344.2168 C0            1 RES     
   11486 N3        -257.7115  -183.1179   345.2107 N3            1 RES     
   11487 S1        -259.3193  -182.8064   345.4404 S1            1 RES     
   11488 N3        -260.0740  -183.7871   344.3465 N3            1 RES     
   11489 C0        -259.0228  -184.4049   343.7489 C0            1 RES     
   11490 C0        -259.1611  -185.3403   342.7318 C0            1 RES     
   11491 H4        -255.9487  -186.0657   342.1714 H4            1 RES     
   11492 C5        -258.6071  -184.5859   336.9033 C5            1 RES     
   11493 C5        -257.6910  -183.7349   337.7842 C5            1 RES     
   11494 C5        -256.9315  -184.5439   338.8507 C5            1 RES     
   11495 C5        -255.9781  -185.6088   338.2737 C5            1 RES     
   11496 C5        -255.2259  -186.3272   339.4073 C5            1 RES     
   11497 C5        -254.4248  -187.5402   338.9135 C5            1 RES     
   11498 C5        -253.7386  -188.3069   340.0691 C5            1 RES     
   11499 C5        -252.4107  -187.6734   340.5889 C5            1 RES     
   11500 C5        -252.3890  -187.2194   342.0811 C5            1 RES     
   11501 C5        -252.6648  -188.3961   343.0621 C5            1 RES     
   11502 C5        -253.2288  -187.9172   344.4128 C5            1 RES     
   11503 C5        -253.9698  -189.0529   345.1506 C5            1 RES     
   11504 C5        -254.7691  -188.5047   346.3466 C5            1 RES     
   11505 C5        -255.7589  -189.5251   346.9370 C5            1 RES     
   11506 C5        -255.0877  -190.7378   347.5720 C5            1 RES     
   11507 C5        -251.0356  -186.4766   342.3284 C5            1 RES     
   11508 C0        -250.6567  -185.5777   343.5679 C0            1 RES     
   11509 C5        -249.0746  -185.4332   343.4987 C5            1 RES     
   11510 C5        -248.2903  -186.3342   344.5104 C5            1 RES     
   11511 C5        -248.1233  -185.6900   345.9262 C5            1 RES     
   11512 C5        -247.0846  -184.5477   346.0213 C5            1 RES     
   11513 C5        -247.0725  -183.8124   347.3737 C5            1 RES     
   11514 C5        -246.5026  -184.6147   348.5591 C5            1 RES     
   11515 C5        -245.0192  -185.0204   348.4217 C5            1 RES     
   11516 C5        -244.0702  -183.8267   348.2719 C5            1 RES     
   11517 C5        -246.9483  -186.9003   343.9380 C5            1 RES     
   11518 C5        -246.0197  -185.9202   343.1754 C5            1 RES     
   11519 C5        -244.6366  -186.5250   342.8442 C5            1 RES     
   11520 C5        -244.6939  -187.7891   341.9656 C5            1 RES     
   11521 C5        -243.3033  -188.3698   341.6385 C5            1 RES     
   11522 C5        -242.4555  -187.4561   340.7322 C5            1 RES     
   11523 C5        -241.0667  -188.0352   340.4073 C5            1 RES     
   11524 C5        -241.1143  -189.3356   339.6036 C5            1 RES     
   11525 H6        -258.0206  -185.3054   336.2969 H6            1 RES     
   11526 H6        -259.1613  -183.9251   336.2032 H6            1 RES     
   11527 H6        -259.3432  -185.1378   337.5257 H6            1 RES     
   11528 H6        -256.9698  -183.1856   337.1425 H6            1 RES     
   11529 H6        -258.3245  -182.9871   338.3110 H6            1 RES     
   11530 H6        -256.3432  -183.8267   339.4633 H6            1 RES     
   11531 H6        -257.6733  -185.0377   339.5165 H6            1 RES     
   11532 H6        -255.2454  -185.1380   337.5825 H6            1 RES     
   11533 H6        -256.5763  -186.3566   337.7117 H6            1 RES     
   11534 H6        -254.5655  -185.6056   339.9340 H6            1 RES     
   11535 H6        -255.9878  -186.7217   340.1080 H6            1 RES     
   11536 H6        -255.1612  -188.2317   338.4469 H6            1 RES     
   11537 H6        -253.6814  -187.2609   338.1361 H6            1 RES     
   11538 H6        -254.4929  -188.4815   340.8627 H6            1 RES     
   11539 H6        -253.4643  -189.3070   339.6710 H6            1 RES     
   11540 H6        -252.1973  -186.7879   339.9489 H6            1 RES     
   11541 H6        -251.5746  -188.3839   340.4111 H6            1 RES     
   11542 H6        -253.2277  -186.5614   342.1259 H6            1 RES     
   11543 H6        -253.4705  -189.0087   342.6226 H6            1 RES     
   11544 H6        -251.7940  -189.0777   343.1746 H6            1 RES     
   11545 H6        -252.4407  -187.4496   345.0401 H6            1 RES     
   11546 H6        -254.0028  -187.1528   344.1914 H6            1 RES     
   11547 H6        -253.2606  -189.8494   345.4623 H6            1 RES     
   11548 H6        -254.7093  -189.4948   344.4462 H6            1 RES     
   11549 H6        -254.0799  -188.1226   347.1291 H6            1 RES     
   11550 H6        -255.3909  -187.6542   345.9871 H6            1 RES     
   11551 H6        -256.4594  -189.8671   346.1426 H6            1 RES     
   11552 H6        -256.3595  -189.0136   347.7203 H6            1 RES     
   11553 H6        -254.4132  -190.4147   348.3922 H6            1 RES     
   11554 H6        -254.5131  -191.3148   346.8191 H6            1 RES     
   11555 H6        -255.8694  -191.4041   347.9962 H6            1 RES     
   11556 H6        -250.8533  -185.8085   341.4574 H6            1 RES     
   11557 H6        -250.2858  -187.2999   342.2689 H6            1 RES     
   11558 H6        -248.7522  -185.7140   342.4741 H6            1 RES     
   11559 H6        -248.7092  -184.3978   343.5406 H6            1 RES     
   11560 H6        -248.9158  -187.2419   344.6740 H6            1 RES     
   11561 H6        -249.1199  -185.3227   346.2540 H6            1 RES     
   11562 H6        -247.8070  -186.4801   346.6404 H6            1 RES     
   11563 H6        -246.0648  -184.9235   345.8288 H6            1 RES     
   11564 H6        -247.3129  -183.7983   345.2493 H6            1 RES     
   11565 H6        -246.4730  -182.8843   347.2639 H6            1 RES     
   11566 H6        -248.1059  -183.4944   347.6186 H6            1 RES     
   11567 H6        -247.1140  -185.5273   348.7162 H6            1 RES     
   11568 H6        -246.6002  -183.9856   349.4713 H6            1 RES     
   11569 H6        -244.8783  -185.7103   347.5648 H6            1 RES     
   11570 H6        -244.7308  -185.5706   349.3433 H6            1 RES     
   11571 H6        -244.1801  -183.1316   349.1314 H6            1 RES     
   11572 H6        -243.0207  -184.1886   348.2428 H6            1 RES     
   11573 H6        -244.2602  -183.2773   347.3272 H6            1 RES     
   11574 H6        -247.2157  -187.6918   343.2061 H6            1 RES     
   11575 H6        -246.3992  -187.3931   344.7699 H6            1 RES     
   11576 H6        -245.8176  -185.0062   343.7519 H6            1 RES     
   11577 H6        -246.5069  -185.5959   342.2341 H6            1 RES     
   11578 H6        -244.0608  -185.7344   342.3203 H6            1 RES     
   11579 H6        -244.1089  -186.7657   343.7934 H6            1 RES     
   11580 H6        -245.2374  -187.5746   341.0201 H6            1 RES     
   11581 H6        -245.2471  -188.5772   342.5180 H6            1 RES     
   11582 H6        -242.7569  -188.5810   342.5840 H6            1 RES     
   11583 H6        -243.4729  -189.3323   341.1129 H6            1 RES     
   11584 H6        -242.2835  -186.4869   341.2424 H6            1 RES     
   11585 H6        -243.0024  -187.2606   339.7840 H6            1 RES     
   11586 H6        -240.5160  -187.2828   339.8013 H6            1 RES     
   11587 H6        -240.4985  -188.2028   341.3478 H6            1 RES     
   11588 H6        -241.5926  -190.1503   340.1836 H6            1 RES     
   11589 H6        -240.0784  -189.6557   339.3628 H6            1 RES     
   11590 H6        -241.6674  -189.1819   338.6531 H6            1 RES     
   11591 C0        -262.9162  -186.5674   339.4560 C0            1 RES     
   11592 C0        -264.2692  -186.2704   340.1033 C0            1 RES     
   11593 C0        -264.1480  -186.0786   341.4389 C0            1 RES     
   11594 S1        -265.5934  -185.6884   342.1874 S1            1 RES     
   11595 C0        -266.4596  -185.7590   340.7222 C0            1 RES     
   11596 C0        -265.5726  -186.0381   339.6686 C0            1 RES     
   11597 C0        -262.7719  -186.0983   341.7974 C0            1 RES     
   11598 C0        -262.0660  -186.2994   340.7075 C0            1 RES     
   11599 C0        -260.6524  -186.0647   340.9364 C0            1 RES     
   11600 C0        -260.4243  -185.7153   342.2587 C0            1 RES     
   11601 S1        -261.9014  -185.6761   343.2946 S1            1 RES     
   11602 H2        -265.8773  -186.0094   338.6442 H2            1 RES     
   11603 H2        -259.8951  -186.0125   340.1732 H2            1 RES     
   11604 N3        -269.9078  -185.8693   339.2098 N3            1 RES     
   11605 C0        -268.5692  -186.0399   339.4056 C0            1 RES     
   11606 C0        -267.9198  -185.5335   340.5496 C0            1 RES     
   11607 C0        -268.7184  -184.8554   341.4853 C0            1 RES     
   11608 N3        -268.2535  -184.3036   342.6379 N3            1 RES     
   11609 S1        -269.6177  -183.6340   343.2901 S1            1 RES     
   11610 N3        -270.8006  -183.9980   342.1964 N3            1 RES     
   11611 C0        -270.1088  -184.6834   341.2500 C0            1 RES     
   11612 C0        -270.6909  -185.2017   340.1006 C0            1 RES     
   11613 H4        -268.0136  -186.6040   338.6775 H4            1 RES     
   11614 C5        -270.7409  -182.9625   334.6389 C5            1 RES     
   11615 C5        -269.4804  -182.7001   335.4645 C5            1 RES     
   11616 C5        -268.8909  -183.9651   336.1133 C5            1 RES     
   11617 C5        -268.4359  -185.0376   335.1040 C5            1 RES     
   11618 C5        -267.8137  -186.2375   335.8391 C5            1 RES     
   11619 C5        -267.5382  -187.4268   334.9082 C5            1 RES     
   11620 C5        -266.9906  -188.6587   335.6676 C5            1 RES     
   11621 C5        -265.4687  -188.6052   336.0082 C5            1 RES     
   11622 C5        -265.0885  -188.6330   337.5208 C5            1 RES     
   11623 C5        -265.5988  -189.9180   338.2360 C5            1 RES     
   11624 C5        -265.7766  -189.7170   339.7525 C5            1 RES     
   11625 C5        -266.7413  -190.7625   340.3521 C5            1 RES     
   11626 C5        -267.1374  -190.3867   341.7914 C5            1 RES     
   11627 C5        -268.3166  -191.2137   342.3346 C5            1 RES     
   11628 C5        -268.0038  -192.6966   342.5007 C5            1 RES     
   11629 C5        -263.5449  -188.4071   337.6232 C5            1 RES     
   11630 C0        -262.7193  -188.0548   338.9203 C0            1 RES     
   11631 C5        -261.2051  -188.3473   338.5322 C5            1 RES     
   11632 C5        -260.6307  -189.6874   339.1021 C5            1 RES     
   11633 C5        -260.0626  -189.5599   340.5540 C5            1 RES     
   11634 C5        -258.7012  -188.8358   340.6768 C5            1 RES     
   11635 C5        -258.2562  -188.5629   342.1251 C5            1 RES     
   11636 C5        -257.8248  -189.8033   342.9305 C5            1 RES     
   11637 C5        -256.5948  -190.5510   342.3717 C5            1 RES     
   11638 C5        -255.3344  -189.6831   342.2950 C5            1 RES     
   11639 C5        -259.6470  -190.4147   338.1261 C5            1 RES     
   11640 C5        -258.5624  -189.5568   337.4245 C5            1 RES     
   11641 C5        -257.5193  -190.4016   336.6584 C5            1 RES     
   11642 C5        -258.1155  -191.2837   335.5450 C5            1 RES     
   11643 C5        -257.0570  -192.1098   334.7867 C5            1 RES     
   11644 C5        -256.0899  -191.2479   333.9519 C5            1 RES     
   11645 C5        -255.0321  -192.0725   333.1964 C5            1 RES     
   11646 C5        -255.6208  -193.0125   332.1433 C5            1 RES     
   11647 H6        -270.5176  -183.6075   333.7651 H6            1 RES     
   11648 H6        -271.1367  -181.9978   334.2558 H6            1 RES     
   11649 H6        -271.5235  -183.4420   335.2645 H6            1 RES     
   11650 H6        -268.7153  -182.2131   334.8234 H6            1 RES     
   11651 H6        -269.7493  -181.9927   336.2801 H6            1 RES     
   11652 H6        -268.0181  -183.6543   336.7277 H6            1 RES     
   11653 H6        -269.6534  -184.4027   336.7949 H6            1 RES     
   11654 H6        -267.6930  -184.6111   334.3951 H6            1 RES     
   11655 H6        -269.3209  -185.3884   334.5325 H6            1 RES     
   11656 H6        -266.8843  -185.9178   336.3571 H6            1 RES     
   11657 H6        -268.5570  -186.5888   336.5813 H6            1 RES     
   11658 H6        -268.5200  -187.7152   334.4712 H6            1 RES     
   11659 H6        -266.8610  -187.1531   334.0707 H6            1 RES     
   11660 H6        -267.6409  -188.8384   336.5475 H6            1 RES     
   11661 H6        -267.1224  -189.5333   334.9958 H6            1 RES     
   11662 H6        -265.0655  -187.6686   335.5615 H6            1 RES     
   11663 H6        -264.9495  -189.4377   335.4857 H6            1 RES     
   11664 H6        -265.6463  -187.8089   337.9057 H6            1 RES     
   11665 H6        -266.6154  -190.1227   337.8586 H6            1 RES     
   11666 H6        -264.9970  -190.8187   337.9870 H6            1 RES     
   11667 H6        -264.7983  -189.6948   340.2775 H6            1 RES     
   11668 H6        -266.2760  -188.7359   339.8960 H6            1 RES     
   11669 H6        -266.3004  -191.7810   340.3011 H6            1 RES     
   11670 H6        -267.6766  -190.7523   339.7492 H6            1 RES     
   11671 H6        -266.2579  -190.4603   342.4656 H6            1 RES     
   11672 H6        -267.4854  -189.3293   341.7901 H6            1 RES     
   11673 H6        -269.1949  -191.0968   341.6610 H6            1 RES     
   11674 H6        -268.5973  -190.8065   343.3302 H6            1 RES     
   11675 H6        -267.1524  -192.8310   343.2001 H6            1 RES     
   11676 H6        -267.7650  -193.1652   341.5244 H6            1 RES     
   11677 H6        -268.8948  -193.2099   342.9225 H6            1 RES     
   11678 H6        -263.2752  -187.5928   336.9144 H6            1 RES     
   11679 H6        -263.1270  -189.3529   337.2058 H6            1 RES     
   11680 H6        -261.1413  -188.3948   337.4248 H6            1 RES     
   11681 H6        -260.5148  -187.5160   338.7314 H6            1 RES     
   11682 H6        -261.4925  -190.3890   339.1857 H6            1 RES     
   11683 H6        -260.8244  -189.0399   341.1745 H6            1 RES     
   11684 H6        -259.9297  -190.5800   340.9739 H6            1 RES     
   11685 H6        -257.9016  -189.4097   340.1773 H6            1 RES     
   11686 H6        -258.7737  -187.8608   340.1731 H6            1 RES     
   11687 H6        -257.4044  -187.8511   342.1029 H6            1 RES     
   11688 H6        -259.0804  -188.0533   342.6638 H6            1 RES     
   11689 H6        -258.6760  -190.5115   343.0038 H6            1 RES     
   11690 H6        -257.5791  -189.4679   343.9623 H6            1 RES     
   11691 H6        -256.8125  -190.9705   341.3682 H6            1 RES     
   11692 H6        -256.3793  -191.4047   343.0500 H6            1 RES     
   11693 H6        -255.0857  -189.2684   343.2951 H6            1 RES     
   11694 H6        -254.4796  -190.3005   341.9466 H6            1 RES     
   11695 H6        -255.4618  -188.8511   341.5725 H6            1 RES     
   11696 H6        -260.2617  -190.8487   337.3092 H6            1 RES     
   11697 H6        -259.1817  -191.2629   338.6742 H6            1 RES     
   11698 H6        -257.9897  -188.9471   338.1377 H6            1 RES     
   11699 H6        -259.0412  -188.8480   336.7196 H6            1 RES     
   11700 H6        -256.7933  -189.6877   336.2178 H6            1 RES     
   11701 H6        -256.9739  -191.0477   337.3812 H6            1 RES     
   11702 H6        -258.6839  -190.6582   334.8232 H6            1 RES     
   11703 H6        -258.8157  -192.0101   336.0080 H6            1 RES     
   11704 H6        -256.4848  -192.7331   335.5086 H6            1 RES     
   11705 H6        -257.6083  -192.7880   334.1030 H6            1 RES     
   11706 H6        -255.5362  -190.5597   334.6220 H6            1 RES     
   11707 H6        -256.6681  -190.6379   333.2238 H6            1 RES     
   11708 H6        -254.3537  -191.3625   332.6749 H6            1 RES     
   11709 H6        -254.4258  -192.6607   333.9189 H6            1 RES     
   11710 H6        -256.2561  -193.7923   332.6094 H6            1 RES     
   11711 H6        -254.7945  -193.5259   331.6074 H6            1 RES     
   11712 H6        -256.2190  -192.4384   331.4047 H6            1 RES     
   11713 C0        -275.0604  -184.3088   337.5614 C0            1 RES     
   11714 C0        -276.1332  -183.8463   338.5478 C0            1 RES     
   11715 C0        -275.7692  -184.0959   339.8286 C0            1 RES     
   11716 S1        -276.8830  -183.5519   340.9533 S1            1 RES     
   11717 C0        -277.9199  -182.9441   339.7461 C0            1 RES     
   11718 C0        -277.3328  -183.1402   338.4845 C0            1 RES     
   11719 C0        -274.4418  -184.6058   339.8531 C0            1 RES     
   11720 C0        -274.0028  -184.6691   338.6162 C0            1 RES     
   11721 C0        -272.5742  -184.9191   338.5691 C0            1 RES     
   11722 C0        -272.0600  -185.0508   339.8501 C0            1 RES     
   11723 S1        -273.2797  -184.9028   341.1718 S1            1 RES     
   11724 H2        -277.7512  -182.7286   337.5909 H2            1 RES     
   11725 H2        -271.9574  -184.8610   337.6888 H2            1 RES     
   11726 N3        -281.3852  -181.6327   339.0665 N3            1 RES     
   11727 C0        -280.1656  -182.2223   338.9104 C0            1 RES     
   11728 C0        -279.2315  -182.2769   339.9644 C0            1 RES     
   11729 C0        -279.6202  -181.7064   341.1878 C0            1 RES     
   11730 N3        -278.8417  -181.6701   342.3022 N3            1 RES     
   11731 S1        -279.8006  -180.8653   343.3827 S1            1 RES     
   11732 N3        -281.1782  -180.5454   342.5296 N3            1 RES     
   11733 C0        -280.8931  -181.0894   341.3186 C0            1 RES     
   11734 C0        -281.7693  -181.0630   340.2415 C0            1 RES     
   11735 H4        -279.9367  -182.6811   337.9647 H4            1 RES     
   11736 C5        -281.8385  -177.4042   335.6096 C5            1 RES     
   11737 C5        -280.4598  -177.7604   336.1678 C5            1 RES     
   11738 C5        -280.2387  -179.2722   336.3532 C5            1 RES     
   11739 C5        -280.3118  -180.0850   335.0455 C5            1 RES     
   11740 C5        -280.0266  -181.5716   335.3205 C5            1 RES     
   11741 C5        -280.2948  -182.4637   334.1001 C5            1 RES     
   11742 C5        -280.0864  -183.9658   334.4074 C5            1 RES     
   11743 C5        -278.6012  -184.4445   334.3992 C5            1 RES     
   11744 C5        -278.0437  -185.0195   335.7378 C5            1 RES     
   11745 C5        -278.8459  -186.2597   336.2291 C5            1 RES     
   11746 C5        -278.7324  -186.4697   337.7506 C5            1 RES     
   11747 C5        -279.8953  -187.3295   338.2909 C5            1 RES     
   11748 C5        -279.9382  -187.2958   339.8293 C5            1 RES     
   11749 C5        -281.2365  -187.8790   340.4156 C5            1 RES     
   11750 C5        -281.4137  -189.3709   340.1560 C5            1 RES     
   11751 C5        -276.5144  -185.2770   335.5397 C5            1 RES     
   11752 C0        -275.4455  -185.5668   336.6629 C0            1 RES     
   11753 C5        -274.1845  -186.1463   335.8865 C5            1 RES     
   11754 C5        -274.0136  -187.6994   335.9831 C5            1 RES     
   11755 C5        -273.2377  -188.1675   337.2583 C5            1 RES     
   11756 C5        -271.7102  -187.9244   337.2369 C5            1 RES     
   11757 C5        -271.0014  -188.2240   338.5703 C5            1 RES     
   11758 C5        -270.8977  -189.7147   338.9452 C5            1 RES     
   11759 C5        -270.0769  -190.5803   337.9650 C5            1 RES     
   11760 C5        -268.6239  -190.1191   337.8112 C5            1 RES     
   11761 C5        -273.4741  -188.3551   334.6685 C5            1 RES     
   11762 C5        -272.2760  -187.6707   333.9608 C5            1 RES     
   11763 C5        -271.6907  -188.5119   332.8039 C5            1 RES     
   11764 C5        -272.6958  -188.8247   331.6791 C5            1 RES     
   11765 C5        -272.0888  -189.6554   330.5304 C5            1 RES     
   11766 C5        -271.0177  -188.8953   329.7242 C5            1 RES     
   11767 C5        -270.4106  -189.7253   328.5788 C5            1 RES     
   11768 C5        -271.4194  -190.1107   327.4957 C5            1 RES     
   11769 H6        -281.9668  -177.8008   334.5821 H6            1 RES     
   11770 H6        -281.9412  -176.2991   335.5616 H6            1 RES     
   11771 H6        -282.6399  -177.8054   336.2656 H6            1 RES     
   11772 H6        -279.6743  -177.3429   335.5027 H6            1 RES     
   11773 H6        -280.3614  -177.2769   337.1650 H6            1 RES     
   11774 H6        -279.2353  -179.4134   336.8104 H6            1 RES     
   11775 H6        -280.9998  -179.6571   337.0675 H6            1 RES     
   11776 H6        -279.5766  -179.6966   334.3073 H6            1 RES     
   11777 H6        -281.3339  -179.9895   334.6224 H6            1 RES     
   11778 H6        -278.9808  -181.6924   335.6757 H6            1 RES     
   11779 H6        -280.7325  -181.9009   336.1079 H6            1 RES     
   11780 H6        -281.3677  -182.3233   333.8406 H6            1 RES     
   11781 H6        -279.6897  -182.1589   333.2193 H6            1 RES     
   11782 H6        -280.6293  -184.2046   335.3441 H6            1 RES     
   11783 H6        -280.5938  -184.5315   333.5973 H6            1 RES     
   11784 H6        -277.9768  -183.5712   334.1046 H6            1 RES     
   11785 H6        -278.4664  -185.1985   333.5936 H6            1 RES     
   11786 H6        -278.2365  -184.2221   336.4200 H6            1 RES     
   11787 H6        -279.9151  -186.0505   336.0534 H6            1 RES     
   11788 H6        -278.6184  -187.1792   335.6477 H6            1 RES     
   11789 H6        -277.7388  -186.8782   338.0320 H6            1 RES     
   11790 H6        -278.8525  -185.4746   338.2280 H6            1 RES     
   11791 H6        -279.8292  -188.3694   337.9054 H6            1 RES     
   11792 H6        -280.8489  -186.8807   337.9337 H6            1 RES     
   11793 H6        -279.0477  -187.8076   340.2517 H6            1 RES     
   11794 H6        -279.9121  -186.2311   340.1534 H6            1 RES     
   11795 H6        -282.1115  -187.3281   340.0036 H6            1 RES     
   11796 H6        -281.2236  -187.7193   341.5156 H6            1 RES     
   11797 H6        -280.5660  -189.9378   340.5943 H6            1 RES     
   11798 H6        -281.4833  -189.5806   339.0692 H6            1 RES     
   11799 H6        -282.3560  -189.7129   340.6357 H6            1 RES     
   11800 H6        -276.0919  -184.4012   334.9986 H6            1 RES     
   11801 H6        -276.4970  -186.1368   334.8299 H6            1 RES     
   11802 H6        -274.2960  -185.8836   334.8135 H6            1 RES     
   11803 H6        -273.2367  -185.6390   336.1135 H6            1 RES     
   11804 H6        -275.0385  -188.1227   336.0925 H6            1 RES     
   11805 H6        -273.6887  -187.6596   338.1382 H6            1 RES     
   11806 H6        -273.3934  -189.2600   337.3872 H6            1 RES     
   11807 H6        -271.2248  -188.5276   336.4502 H6            1 RES     
   11808 H6        -271.5248  -186.8655   337.0044 H6            1 RES     
   11809 H6        -269.9737  -187.8065   338.5237 H6            1 RES     
   11810 H6        -271.5256  -187.6841   339.3845 H6            1 RES     
   11811 H6        -271.9165  -190.1440   339.0409 H6            1 RES     
   11812 H6        -270.4126  -189.7791   339.9442 H6            1 RES     
   11813 H6        -270.5599  -190.6088   336.9669 H6            1 RES     
   11814 H6        -270.0641  -191.6196   338.3586 H6            1 RES     
   11815 H6        -268.1140  -190.1027   338.7980 H6            1 RES     
   11816 H6        -268.0802  -190.8217   337.1448 H6            1 RES     
   11817 H6        -268.5678  -189.1115   337.3508 H6            1 RES     
   11818 H6        -274.3061  -188.3399   333.9329 H6            1 RES     
   11819 H6        -273.2447  -189.4215   334.8840 H6            1 RES     
   11820 H6        -271.4394  -187.4832   334.6489 H6            1 RES     
   11821 H6        -272.5862  -186.6820   333.5675 H6            1 RES     
   11822 H6        -270.8383  -187.9347   332.3903 H6            1 RES     
   11823 H6        -271.2951  -189.4673   333.2138 H6            1 RES     
   11824 H6        -273.1196  -187.8819   331.2705 H6            1 RES     
   11825 H6        -273.5251  -189.4271   332.1051 H6            1 RES     
   11826 H6        -271.6607  -190.5973   330.9388 H6            1 RES     
   11827 H6        -272.9240  -189.9201   329.8495 H6            1 RES     
   11828 H6        -270.1789  -188.6182   330.3941 H6            1 RES     
   11829 H6        -271.4567  -187.9622   329.3083 H6            1 RES     
   11830 H6        -269.6152  -189.1146   328.0985 H6            1 RES     
   11831 H6        -269.9389  -190.6448   328.9882 H6            1 RES     
   11832 H6        -272.2054  -190.7812   327.8975 H6            1 RES     
   11833 H6        -270.8941  -190.6554   326.6827 H6            1 RES     
   11834 H6        -271.8904  -189.2017   327.0659 H6            1 RES     
   11835 C0        -285.9049  -178.2752   339.0324 C0            1 RES     
   11836 C0        -286.6139  -177.8395   340.3152 C0            1 RES     
   11837 C0        -286.1776  -178.5448   341.3864 C0            1 RES     
   11838 S1        -286.8783  -178.0635   342.8282 S1            1 RES     
   11839 C0        -287.8131  -176.8631   342.0619 C0            1 RES     
   11840 C0        -287.5075  -176.8383   340.6904 C0            1 RES     
   11841 C0        -285.1051  -179.3912   340.9914 C0            1 RES     
   11842 C0        -284.8901  -179.2106   339.7078 C0            1 RES     
   11843 C0        -283.6470  -179.8270   339.2830 C0            1 RES     
   11844 C0        -283.0315  -180.4668   340.3482 C0            1 RES     
   11845 S1        -283.9347  -180.3754   341.9077 S1            1 RES     
   11846 H2        -287.8864  -176.0830   340.0356 H2            1 RES     
   11847 H2        -283.1758  -179.6897   338.3250 H2            1 RES     
   11848 N3        -290.7057  -174.4913   342.5059 N3            1 RES     
   11849 C0        -289.7856  -175.3274   341.9458 C0            1 RES     
   11850 C0        -288.7846  -175.9484   342.7196 C0            1 RES     
   11851 C0        -288.7863  -175.6757   344.0976 C0            1 RES     
   11852 N3        -287.8918  -176.1876   344.9848 N3            1 RES     
   11853 S1        -288.3677  -175.4986   346.4108 S1            1 RES     
   11854 N3        -289.6662  -174.5692   345.9890 N3            1 RES     
   11855 C0        -289.7506  -174.7922   344.6521 C0            1 RES     
   11856 C0        -290.7102  -174.2065   343.8368 C0            1 RES     
   11857 H4        -289.8570  -175.5344   340.8926 H4            1 RES     
   11858 C5        -290.2098  -169.4876   340.3257 C5            1 RES     
   11859 C5        -288.9637  -170.3642   340.4599 C5            1 RES     
   11860 C5        -289.2332  -171.8623   340.2325 C5            1 RES     
   11861 C5        -289.7545  -172.2020   338.8222 C5            1 RES     
   11862 C5        -289.9433  -173.7214   338.6708 C5            1 RES     
   11863 C5        -290.6607  -174.1041   337.3685 C5            1 RES     
   11864 C5        -290.9217  -175.6255   337.2614 C5            1 RES     
   11865 C5        -289.6963  -176.4782   336.8073 C5            1 RES     
   11866 C5        -289.1794  -177.5522   337.8136 C5            1 RES     
   11867 C5        -290.2705  -178.6039   338.1694 C5            1 RES     
   11868 C5        -290.0210  -179.2730   339.5339 C5            1 RES     
   11869 C5        -291.3154  -179.8899   340.1061 C5            1 RES     
   11870 C5        -291.1285  -180.2972   341.5788 C5            1 RES     
   11871 C5        -292.4510  -180.6367   342.2896 C5            1 RES     
   11872 C5        -293.1478  -181.8744   341.7356 C5            1 RES     
   11873 C5        -287.8661  -178.1597   337.2216 C5            1 RES     
   11874 C0        -286.8076  -179.0537   337.9755 C0            1 RES     
   11875 C5        -285.9326  -179.7108   336.8217 C5            1 RES     
   11876 C5        -286.2750  -181.2065   336.5119 C5            1 RES     
   11877 C5        -285.5278  -182.2257   337.4340 C5            1 RES     
   11878 C5        -284.0253  -182.4268   337.1264 C5            1 RES     
   11879 C5        -283.2766  -183.2901   338.1580 C5            1 RES     
   11880 C5        -283.6220  -184.7914   338.1412 C5            1 RES     
   11881 C5        -283.2811  -185.5264   336.8269 C5            1 RES     
   11882 C5        -281.7941  -185.4685   336.4618 C5            1 RES     
   11883 C5        -286.1737  -181.5728   334.9937 C5            1 RES     
   11884 C5        -284.9282  -181.0771   334.2143 C5            1 RES     
   11885 C5        -284.8236  -181.6720   332.7917 C5            1 RES     
   11886 C5        -286.0227  -181.3461   331.8811 C5            1 RES     
   11887 C5        -285.8932  -181.9398   330.4638 C5            1 RES     
   11888 C5        -284.7549  -181.3104   329.6375 C5            1 RES     
   11889 C5        -284.6246  -181.9046   328.2234 C5            1 RES     
   11890 C5        -285.8454  -181.6561   327.3362 C5            1 RES     
   11891 H6        -290.6052  -169.5134   339.2901 H6            1 RES     
   11892 H6        -289.9456  -168.4347   340.5616 H6            1 RES     
   11893 H6        -290.9986  -169.8209   341.0330 H6            1 RES     
   11894 H6        -288.1856  -170.0089   339.7514 H6            1 RES     
   11895 H6        -288.5716  -170.2419   341.4940 H6            1 RES     
   11896 H6        -288.2800  -172.4073   340.4059 H6            1 RES     
   11897 H6        -289.9708  -172.2092   340.9896 H6            1 RES     
   11898 H6        -289.0433  -171.8377   338.0490 H6            1 RES     
   11899 H6        -290.7356  -171.7035   338.6745 H6            1 RES     
   11900 H6        -288.9580  -174.2297   338.7430 H6            1 RES     
   11901 H6        -290.6007  -174.0542   339.4978 H6            1 RES     
   11902 H6        -291.6513  -173.5982   337.3975 H6            1 RES     
   11903 H6        -290.1185  -173.7380   336.4702 H6            1 RES     
   11904 H6        -291.3761  -175.9653   338.2140 H6            1 RES     
   11905 H6        -291.6964  -175.7628   336.4773 H6            1 RES     
   11906 H6        -288.8653  -175.7694   336.5919 H6            1 RES     
   11907 H6        -289.9337  -176.9695   335.8388 H6            1 RES     
   11908 H6        -288.9990  -176.9688   338.6886 H6            1 RES     
   11909 H6        -291.2230  -178.0606   338.2929 H6            1 RES     
   11910 H6        -290.4450  -179.3382   337.3534 H6            1 RES     
   11911 H6        -289.1903  -180.0080   339.4809 H6            1 RES     
   11912 H6        -289.7359  -178.4695   340.2449 H6            1 RES     
   11913 H6        -291.6529  -180.7461   339.4838 H6            1 RES     
   11914 H6        -292.1061  -179.1070   340.0879 H6            1 RES     
   11915 H6        -290.4085  -181.1390   341.6583 H6            1 RES     
   11916 H6        -290.7054  -179.4264   342.1282 H6            1 RES     
   11917 H6        -293.1422  -179.7666   342.2258 H6            1 RES     
   11918 H6        -292.2317  -180.8163   343.3646 H6            1 RES     
   11919 H6        -292.4838  -182.7592   341.8268 H6            1 RES     
   11920 H6        -293.4347  -181.7285   340.6743 H6            1 RES     
   11921 H6        -294.0731  -182.0624   342.3217 H6            1 RES     
   11922 H6        -287.2572  -177.3197   336.8192 H6            1 RES     
   11923 H6        -288.2348  -178.7426   336.3454 H6            1 RES     
   11924 H6        -286.0998  -179.1253   335.8932 H6            1 RES     
   11925 H6        -284.8482  -179.5800   336.9414 H6            1 RES     
   11926 H6        -287.3563  -181.3372   336.7474 H6            1 RES     
   11927 H6        -285.6566  -181.8921   338.4865 H6            1 RES     
   11928 H6        -286.0176  -183.2181   337.3358 H6            1 RES     
   11929 H6        -283.8829  -182.8843   336.1321 H6            1 RES     
   11930 H6        -283.5335  -181.4431   337.1121 H6            1 RES     
   11931 H6        -282.1859  -183.1838   337.9799 H6            1 RES     
   11932 H6        -283.4722  -182.8875   339.1723 H6            1 RES     
   11933 H6        -284.7015  -184.9252   338.3609 H6            1 RES     
   11934 H6        -283.0508  -185.2790   338.9617 H6            1 RES     
   11935 H6        -283.8811  -185.1246   335.9849 H6            1 RES     
   11936 H6        -283.5588  -186.5951   336.9536 H6            1 RES     
   11937 H6        -281.1746  -185.8857   337.2842 H6            1 RES     
   11938 H6        -281.6136  -186.0686   335.5449 H6            1 RES     
   11939 H6        -281.4719  -184.4286   336.2491 H6            1 RES     
   11940 H6        -287.0480  -181.1097   334.4889 H6            1 RES     
   11941 H6        -286.2835  -182.6750   334.8968 H6            1 RES     
   11942 H6        -283.9890  -181.3423   334.7204 H6            1 RES     
   11943 H6        -284.9446  -179.9712   334.1431 H6            1 RES     
   11944 H6        -283.8949  -181.2631   332.3433 H6            1 RES     
   11945 H6        -284.7142  -182.7764   332.8672 H6            1 RES     
   11946 H6        -286.1625  -180.2457   331.8103 H6            1 RES     
   11947 H6        -286.9365  -181.7881   332.3302 H6            1 RES     
   11948 H6        -285.7493  -183.0405   330.5337 H6            1 RES     
   11949 H6        -286.8557  -181.7477   329.9461 H6            1 RES     
   11950 H6        -283.7864  -181.4890   330.1469 H6            1 RES     
   11951 H6        -284.9130  -180.2124   329.5609 H6            1 RES     
   11952 H6        -283.7472  -181.4295   327.7326 H6            1 RES     
   11953 H6        -284.4324  -182.9974   328.2897 H6            1 RES     
   11954 H6        -286.7449  -182.1655   327.7367 H6            1 RES     
   11955 H6        -285.6502  -182.0638   326.3216 H6            1 RES     
   11956 H6        -286.0433  -180.5671   327.2480 H6            1 RES     
   11957 C0        -293.8123  -170.1419   344.2759 C0            1 RES     
   11958 C0        -294.1492  -169.9197   345.7508 C0            1 RES     
   11959 C0        -293.8261  -171.0004   346.5010 C0            1 RES     
   11960 S1        -294.1179  -170.7854   348.1351 S1            1 RES     
   11961 C0        -294.6990  -169.2013   347.9011 C0            1 RES     
   11962 C0        -294.5979  -168.8632   346.5408 C0            1 RES     
   11963 C0        -293.1619  -171.9600   345.6882 C0            1 RES     
   11964 C0        -293.0814  -171.4798   344.4677 C0            1 RES     
   11965 C0        -292.1859  -172.2684   343.6419 C0            1 RES     
   11966 C0        -291.6748  -173.3379   344.3614 C0            1 RES     
   11967 S1        -292.2684  -173.4567   346.0613 S1            1 RES     
   11968 H2        -294.7925  -167.8746   346.1832 H2            1 RES     
   11969 H2        -291.8351  -171.9951   342.6617 H2            1 RES     
   11970 N3        -296.5478  -166.3501   349.5266 N3            1 RES     
   11971 C0        -296.0456  -167.2091   348.5943 C0            1 RES     
   11972 C0        -295.2093  -168.2846   348.9557 C0            1 RES     
   11973 C0        -294.9272  -168.4381   350.3232 C0            1 RES     
   11974 N3        -294.1383  -169.4171   350.8413 N3            1 RES     
   11975 S1        -294.1537  -169.0709   352.4584 S1            1 RES     
   11976 N3        -295.1156  -167.7328   352.5689 N3            1 RES     
   11977 C0        -295.4557  -167.5217   351.2713 C0            1 RES     
   11978 C0        -296.2709  -166.4780   350.8531 C0            1 RES     
   11979 H4        -296.3284  -167.0700   347.5658 H4            1 RES     
   11980 C5        -294.7302  -161.2784   348.5213 C5            1 RES     
   11981 C5        -293.8399  -162.4693   348.1629 C5            1 RES     
   11982 C5        -294.6204  -163.6961   347.6585 C5            1 RES     
   11983 C5        -295.4172  -163.4473   346.3627 C5            1 RES     
   11984 C5        -296.1187  -164.7385   345.9071 C5            1 RES     
   11985 C5        -297.0976  -164.5055   344.7475 C5            1 RES     
   11986 C5        -297.8610  -165.7912   344.3497 C5            1 RES     
   11987 C5        -297.0646  -166.7823   343.4450 C5            1 RES     
   11988 C5        -296.7978  -168.2036   344.0295 C5            1 RES     
   11989 C5        -298.1148  -168.9621   344.3663 C5            1 RES     
   11990 C5        -297.9128  -170.0431   345.4445 C5            1 RES     
   11991 C5        -299.2447  -170.4104   346.1332 C5            1 RES     
   11992 C5        -298.9992  -171.2662   347.3890 C5            1 RES     
   11993 C5        -300.2458  -171.4126   348.2800 C5            1 RES     
   11994 C5        -301.3844  -172.1857   347.6238 C5            1 RES     
   11995 C5        -295.8573  -168.9549   343.0318 C5            1 RES     
   11996 C0        -295.0610  -170.2903   343.2978 C0            1 RES     
   11997 C5        -294.6245  -170.7992   341.8558 C5            1 RES     
   11998 C5        -295.4838  -171.9793   341.2906 C5            1 RES     
   11999 C5        -294.9958  -173.3907   341.7564 C5            1 RES     
   12000 C5        -293.7041  -173.9070   341.0800 C5            1 RES     
   12001 C5        -293.1475  -175.2084   341.6855 C5            1 RES     
   12002 C5        -293.9704  -176.4784   341.3968 C5            1 RES     
   12003 C5        -294.0806  -176.8615   339.9051 C5            1 RES     
   12004 C5        -292.7255  -177.1199   339.2384 C5            1 RES     
   12005 C5        -295.7238  -171.8982   339.7462 C5            1 RES     
   12006 C5        -294.5067  -171.5674   338.8441 C5            1 RES     
   12007 C5        -294.8060  -171.7242   337.3360 C5            1 RES     
   12008 C5        -295.9441  -170.8227   336.8209 C5            1 RES     
   12009 C5        -296.2191  -170.9870   335.3125 C5            1 RES     
   12010 C5        -295.0641  -170.4901   334.4214 C5            1 RES     
   12011 C5        -295.3381  -170.6559   332.9158 C5            1 RES     
   12012 C5        -296.5188  -169.8260   332.4096 C5            1 RES     
   12013 H6        -295.2527  -160.8877   347.6248 H6            1 RES     
   12014 H6        -294.1011  -160.4595   348.9308 H6            1 RES     
   12015 H6        -295.4775  -161.5683   349.2902 H6            1 RES     
   12016 H6        -293.0955  -162.1560   347.4004 H6            1 RES     
   12017 H6        -293.2886  -162.7703   349.0812 H6            1 RES     
   12018 H6        -293.8877  -164.5130   347.4806 H6            1 RES     
   12019 H6        -295.3174  -164.0273   348.4598 H6            1 RES     
   12020 H6        -294.7412  -163.0881   345.5562 H6            1 RES     
   12021 H6        -296.1876  -162.6726   346.5604 H6            1 RES     
   12022 H6        -295.3583  -165.5013   345.6348 H6            1 RES     
   12023 H6        -296.7265  -165.0999   346.7597 H6            1 RES     
   12024 H6        -297.8497  -163.7731   345.1163 H6            1 RES     
   12025 H6        -296.5963  -164.0605   343.8613 H6            1 RES     
   12026 H6        -298.2641  -166.2528   345.2737 H6            1 RES     
   12027 H6        -298.7392  -165.4694   343.7505 H6            1 RES     
   12028 H6        -296.0844  -166.3051   343.2196 H6            1 RES     
   12029 H6        -297.5849  -166.8811   342.4676 H6            1 RES     
   12030 H6        -296.3132  -167.9773   344.9528 H6            1 RES     
   12031 H6        -298.8057  -168.2339   344.8245 H6            1 RES     
   12032 H6        -298.6356  -169.3454   343.4623 H6            1 RES     
   12033 H6        -297.3893  -170.9330   345.0355 H6            1 RES     
   12034 H6        -297.2804  -169.5970   346.2404 H6            1 RES     
   12035 H6        -299.9311  -170.9159   345.4206 H6            1 RES     
   12036 H6        -299.7251  -169.4672   346.4769 H6            1 RES     
   12037 H6        -298.5958  -172.2613   347.1054 H6            1 RES     
   12038 H6        -298.2384  -170.7500   348.0167 H6            1 RES     
   12039 H6        -300.6108  -170.4044   348.5785 H6            1 RES     
   12040 H6        -299.9502  -171.9529   349.2054 H6            1 RES     
   12041 H6        -301.0458  -173.2077   347.3539 H6            1 RES     
   12042 H6        -301.7524  -171.6612   346.7187 H6            1 RES     
   12043 H6        -302.2277  -172.2689   348.3428 H6            1 RES     
   12044 H6        -295.0669  -168.2407   342.7102 H6            1 RES     
   12045 H6        -296.5176  -169.1276   342.1500 H6            1 RES     
   12046 H6        -294.7164  -169.9454   341.1520 H6            1 RES     
   12047 H6        -293.5528  -171.0197   341.7553 H6            1 RES     
   12048 H6        -296.5029  -171.8636   341.7263 H6            1 RES     
   12049 H6        -294.8577  -173.3576   342.8589 H6            1 RES     
   12050 H6        -295.7958  -174.1313   341.5421 H6            1 RES     
   12051 H6        -293.8626  -174.0742   340.0006 H6            1 RES     
   12052 H6        -292.9208  -173.1421   341.1854 H6            1 RES     
   12053 H6        -292.1198  -175.3659   341.2962 H6            1 RES     
   12054 H6        -293.0542  -175.0823   342.7831 H6            1 RES     
   12055 H6        -294.9910  -176.3615   341.8165 H6            1 RES     
   12056 H6        -293.4843  -177.3248   341.9304 H6            1 RES     
   12057 H6        -294.6250  -176.0792   339.3377 H6            1 RES     
   12058 H6        -294.6766  -177.7972   339.8380 H6            1 RES     
   12059 H6        -292.1708  -177.9160   339.7793 H6            1 RES     
   12060 H6        -292.8848  -177.4508   338.1903 H6            1 RES     
   12061 H6        -292.1096  -176.1978   339.2074 H6            1 RES     
   12062 H6        -296.4564  -171.0814   339.5738 H6            1 RES     
   12063 H6        -296.2056  -172.8464   339.4218 H6            1 RES     
   12064 H6        -293.6477  -172.2220   339.0494 H6            1 RES     
   12065 H6        -294.1649  -170.5312   339.0387 H6            1 RES     
   12066 H6        -293.8668  -171.4804   336.7981 H6            1 RES     
   12067 H6        -295.0599  -172.7864   337.1248 H6            1 RES     
   12068 H6        -295.7192  -169.7570   337.0424 H6            1 RES     
   12069 H6        -296.8803  -171.1012   337.3483 H6            1 RES     
   12070 H6        -296.4403  -172.0539   335.0891 H6            1 RES     
   12071 H6        -297.1257  -170.3892   335.0844 H6            1 RES     
   12072 H6        -294.1486  -171.0747   334.6434 H6            1 RES     
   12073 H6        -294.8580  -169.4197   334.6410 H6            1 RES     
   12074 H6        -294.4307  -170.3248   332.3648 H6            1 RES     
   12075 H6        -295.5122  -171.7281   332.6799 H6            1 RES     
   12076 H6        -297.4708  -170.1558   332.8721 H6            1 RES     
   12077 H6        -296.6143  -169.9565   331.3107 H6            1 RES     
   12078 H6        -296.3544  -168.7492   332.6251 H6            1 RES     
   12079 C0        -297.7540  -162.0194   352.9165 C0            1 RES     
   12080 C0        -297.7878  -162.1531   354.4393 C0            1 RES     
   12081 C0        -297.7398  -163.4513   354.8238 C0            1 RES     
   12082 S1        -297.7116  -163.6509   356.4854 S1            1 RES     
   12083 C0        -297.7606  -161.9712   356.7650 C0            1 RES     
   12084 C0        -297.7449  -161.2926   355.5345 C0            1 RES     
   12085 C0        -297.5527  -164.2772   353.6812 C0            1 RES     
   12086 C0        -297.4893  -163.5038   352.6208 C0            1 RES     
   12087 C0        -297.0315  -164.2347   351.4538 C0            1 RES     
   12088 C0        -296.8088  -165.5664   351.7694 C0            1 RES     
   12089 S1        -297.1636  -166.0055   353.4833 S1            1 RES     
   12090 H2        -297.6484  -160.2297   355.4709 H2            1 RES     
   12091 H2        -296.7510  -163.7967   350.5114 H2            1 RES     
   12092 N3        -298.3111  -159.3212   359.3849 N3            1 RES     
   12093 C0        -298.2584  -159.9747   358.1893 C0            1 RES     
   12094 C0        -297.7846  -161.2985   358.0916 C0            1 RES     
   12095 C0        -297.3807  -161.9183   359.2857 C0            1 RES     
   12096 N3        -296.8971  -163.1865   359.3694 N3            1 RES     
   12097 S1        -296.5697  -163.3389   360.9832 S1            1 RES     
   12098 N3        -297.0075  -161.8779   361.6170 N3            1 RES     
   12099 C0        -297.4366  -161.2096   360.5156 C0            1 RES     
   12100 C0        -297.9092  -159.9042   360.5473 C0            1 RES     
   12101 H4        -298.6203  -159.4670   357.3127 H4            1 RES     
   12102 C5        -295.0732  -154.9029   359.2090 C5            1 RES     
   12103 C5        -294.6882  -156.1367   358.3913 C5            1 RES     
   12104 C5        -295.8942  -156.8909   357.8036 C5            1 RES     
   12105 C5        -296.7366  -156.0602   356.8154 C5            1 RES     
   12106 C5        -297.8835  -156.9098   356.2410 C5            1 RES     
   12107 C5        -298.8818  -156.0822   355.4191 C5            1 RES     
   12108 C5        -300.0765  -156.9262   354.9145 C5            1 RES     
   12109 C5        -299.7893  -157.7912   353.6478 C5            1 RES     
   12110 C5        -299.9303  -159.3363   353.8087 C5            1 RES     
   12111 C5        -301.3633  -159.7577   354.2467 C5            1 RES     
   12112 C5        -301.3825  -161.1180   354.9686 C5            1 RES     
   12113 C5        -302.6503  -161.2807   355.8344 C5            1 RES     
   12114 C5        -302.5292  -162.4994   356.7670 C5            1 RES     
   12115 C5        -303.6158  -162.5434   357.8564 C5            1 RES     
   12116 C5        -305.0265  -162.7378   357.3116 C5            1 RES     
   12117 C5        -299.4421  -159.9955   352.4776 C5            1 RES     
   12118 C0        -299.1052  -161.5176   352.2379 C0            1 RES     
   12119 C5        -299.0692  -161.6835   350.6568 C5            1 RES     
   12120 C5        -300.3417  -162.3550   350.0401 C5            1 RES     
   12121 C5        -300.2896  -163.9185   350.0412 C5            1 RES     
   12122 C5        -299.3507  -164.5557   348.9898 C5            1 RES     
   12123 C5        -299.1786  -166.0788   349.1333 C5            1 RES     
   12124 C5        -300.4083  -166.9236   348.7489 C5            1 RES     
   12125 C5        -300.8474  -166.8063   347.2733 C5            1 RES     
   12126 C5        -299.7624  -167.2284   346.2770 C5            1 RES     
   12127 C5        -300.7551  -161.7615   348.6523 C5            1 RES     
   12128 C5        -299.6364  -161.5374   347.6021 C5            1 RES     
   12129 C5        -300.1792  -161.1553   346.2064 C5            1 RES     
   12130 C5        -301.0138  -159.8605   346.1861 C5            1 RES     
   12131 C5        -301.5364  -159.4920   344.7829 C5            1 RES     
   12132 C5        -300.4190  -159.1018   343.7959 C5            1 RES     
   12133 C5        -300.9407  -158.7358   342.3947 C5            1 RES     
   12134 C5        -301.8376  -157.4971   342.3757 C5            1 RES     
   12135 H6        -295.5567  -154.1365   358.5700 H6            1 RES     
   12136 H6        -294.1572  -154.4511   359.6460 H6            1 RES     
   12137 H6        -295.7587  -155.1826   360.0370 H6            1 RES     
   12138 H6        -293.9967  -155.8366   357.5756 H6            1 RES     
   12139 H6        -294.1451  -156.8356   359.0655 H6            1 RES     
   12140 H6        -295.5068  -157.7914   357.2794 H6            1 RES     
   12141 H6        -296.5419  -157.2321   358.6412 H6            1 RES     
   12142 H6        -296.0999  -155.6860   355.9842 H6            1 RES     
   12143 H6        -297.1704  -155.1934   357.3569 H6            1 RES     
   12144 H6        -297.4654  -157.7411   355.6339 H6            1 RES     
   12145 H6        -298.4508  -157.3186   357.0999 H6            1 RES     
   12146 H6        -299.2886  -155.3092   356.1083 H6            1 RES     
   12147 H6        -298.3907  -155.5571   354.5717 H6            1 RES     
   12148 H6        -300.4761  -157.5051   355.7715 H6            1 RES     
   12149 H6        -300.8729  -156.2098   354.6207 H6            1 RES     
   12150 H6        -298.7482  -157.5648   353.3253 H6            1 RES     
   12151 H6        -300.4445  -157.4492   352.8175 H6            1 RES     
   12152 H6        -299.2736  -159.5359   354.6257 H6            1 RES     
   12153 H6        -301.7019  -159.0320   355.0059 H6            1 RES     
   12154 H6        -302.1031  -159.6970   353.4195 H6            1 RES     
   12155 H6        -301.2468  -161.9589   354.2560 H6            1 RES     
   12156 H6        -300.5329  -161.1210   355.6832 H6            1 RES     
   12157 H6        -303.5582  -161.3412   355.1968 H6            1 RES     
   12158 H6        -302.7371  -160.3842   356.4879 H6            1 RES     
   12159 H6        -302.5229  -163.4393   356.1754 H6            1 RES     
   12160 H6        -301.5602  -162.4252   357.3100 H6            1 RES     
   12161 H6        -303.5797  -161.6066   358.4564 H6            1 RES     
   12162 H6        -303.3896  -163.3912   358.5390 H6            1 RES     
   12163 H6        -305.0877  -163.6881   356.7414 H6            1 RES     
   12164 H6        -305.3225  -161.8900   356.6609 H6            1 RES     
   12165 H6        -305.7400  -162.7870   358.1622 H6            1 RES     
   12166 H6        -298.5129  -159.4708   352.1622 H6            1 RES     
   12167 H6        -300.2390  -159.7096   351.7519 H6            1 RES     
   12168 H6        -298.9702  -160.6714   350.2112 H6            1 RES     
   12169 H6        -298.1567  -162.1570   350.2688 H6            1 RES     
   12170 H6        -301.1928  -162.0903   350.7089 H6            1 RES     
   12171 H6        -299.9952  -164.2497   351.0606 H6            1 RES     
   12172 H6        -301.3117  -164.3077   349.8457 H6            1 RES     
   12173 H6        -299.7055  -164.3481   347.9654 H6            1 RES     
   12174 H6        -298.3515  -164.1077   349.0918 H6            1 RES     
   12175 H6        -298.3268  -166.3978   348.4967 H6            1 RES     
   12176 H6        -298.8959  -166.3110   350.1798 H6            1 RES     
   12177 H6        -301.2626  -166.6526   349.4031 H6            1 RES     
   12178 H6        -300.1609  -167.9900   348.9464 H6            1 RES     
   12179 H6        -301.1751  -165.7722   347.0419 H6            1 RES     
   12180 H6        -301.7233  -167.4742   347.1255 H6            1 RES     
   12181 H6        -299.4334  -168.2702   346.4778 H6            1 RES     
   12182 H6        -300.1678  -167.1793   345.2443 H6            1 RES     
   12183 H6        -298.8863  -166.5498   346.3244 H6            1 RES     
   12184 H6        -301.1916  -160.7586   348.8450 H6            1 RES     
   12185 H6        -301.5647  -162.3977   348.2326 H6            1 RES     
   12186 H6        -299.0236  -162.4373   347.4499 H6            1 RES     
   12187 H6        -298.9464  -160.7434   347.9512 H6            1 RES     
   12188 H6        -299.2975  -161.0391   345.5430 H6            1 RES     
   12189 H6        -300.7982  -161.9929   345.8158 H6            1 RES     
   12190 H6        -300.4192  -159.0146   346.5938 H6            1 RES     
   12191 H6        -301.9056  -160.0062   346.8308 H6            1 RES     
   12192 H6        -302.1282  -160.3395   344.3722 H6            1 RES     
   12193 H6        -302.2157  -158.6240   344.9110 H6            1 RES     
   12194 H6        -299.7278  -159.9586   343.6631 H6            1 RES     
   12195 H6        -299.8406  -158.2458   344.2072 H6            1 RES     
   12196 H6        -300.0616  -158.5270   341.7465 H6            1 RES     
   12197 H6        -301.4920  -159.5977   341.9604 H6            1 RES     
   12198 H6        -302.7703  -157.6662   342.9506 H6            1 RES     
   12199 H6        -302.1241  -157.2680   341.3273 H6            1 RES     
   12200 H6        -301.2966  -156.6223   342.7940 H6            1 RES     
   12201 C0        -297.5236  -156.0159   363.8746 C0            1 RES     
   12202 C0        -297.3860  -156.5743   365.2913 C0            1 RES     
   12203 C0        -297.7183  -157.8867   365.3410 C0            1 RES     
   12204 S1        -297.5252  -158.5634   366.8597 S1            1 RES     
   12205 C0        -296.9743  -157.0962   367.5275 C0            1 RES     
   12206 C0        -296.9068  -156.1204   366.5185 C0            1 RES     
   12207 C0        -297.9780  -158.3598   364.0252 C0            1 RES     
   12208 C0        -297.8109  -157.3605   363.1885 C0            1 RES     
   12209 C0        -297.7900  -157.8157   361.8109 C0            1 RES     
   12210 C0        -297.9800  -159.1879   361.7481 C0            1 RES     
   12211 S1        -298.2164  -159.9909   363.3467 S1            1 RES     
   12212 H2        -296.4730  -155.1575   366.6849 H2            1 RES     
   12213 H2        -297.5151  -157.2186   360.9585 H2            1 RES     
   12214 N3        -296.2409  -155.2861   370.7486 N3            1 RES     
   12215 C0        -296.5763  -155.5483   369.4532 C0            1 RES     
   12216 C0        -296.5874  -156.8629   368.9448 C0            1 RES     
   12217 C0        -296.2489  -157.8924   369.8386 C0            1 RES     
   12218 N3        -296.2069  -159.2119   369.5127 N3            1 RES     
   12219 S1        -295.7259  -159.9155   370.9298 S1            1 RES     
   12220 N3        -295.5604  -158.6426   371.9691 N3            1 RES     
   12221 C0        -295.8934  -157.5888   371.1801 C0            1 RES     
   12222 C0        -295.8965  -156.2721   371.6214 C0            1 RES     
   12223 H4        -296.8683  -154.7260   368.8241 H4            1 RES     
   12224 C5        -291.7787  -152.1071   370.8847 C5            1 RES     
   12225 C5        -291.9437  -153.1037   369.7364 C5            1 RES     
   12226 C5        -293.4014  -153.2819   369.2759 C5            1 RES     
   12227 C5        -294.0501  -151.9966   368.7250 C5            1 RES     
   12228 C5        -295.4824  -152.2825   368.2416 C5            1 RES     
   12229 C5        -296.2543  -151.0049   367.8824 C5            1 RES     
   12230 C5        -297.7196  -151.2927   367.4771 C5            1 RES     
   12231 C5        -297.9164  -151.7933   366.0122 C5            1 RES     
   12232 C5        -298.5381  -153.2129   365.8353 C5            1 RES     
   12233 C5        -299.9534  -153.3233   366.4740 C5            1 RES     
   12234 C5        -300.3216  -154.7724   366.8435 C5            1 RES     
   12235 C5        -301.4368  -154.8179   367.9100 C5            1 RES     
   12236 C5        -301.5976  -156.2387   368.4803 C5            1 RES     
   12237 C5        -302.4730  -156.2921   369.7452 C5            1 RES     
   12238 C5        -303.9299  -155.9137   369.5023 C5            1 RES     
   12239 C5        -298.4882  -153.5631   364.3124 C5            1 RES     
   12240 C0        -298.7127  -154.9788   363.6542 C0            1 RES     
   12241 C5        -298.9558  -154.6779   362.1118 C5            1 RES     
   12242 C5        -300.4522  -154.7533   361.6583 C5            1 RES     
   12243 C5        -300.9224  -156.1972   361.2824 C5            1 RES     
   12244 C5        -300.4055  -156.7359   359.9276 C5            1 RES     
   12245 C5        -300.7303  -158.2183   359.6688 C5            1 RES     
   12246 C5        -302.2117  -158.5322   359.3849 C5            1 RES     
   12247 C5        -302.7892  -157.8697   358.1155 C5            1 RES     
   12248 C5        -302.0569  -158.2690   356.8302 C5            1 RES     
   12249 C5        -300.8355  -153.6885   360.5773 C5            1 RES     
   12250 C5        -299.8648  -153.4910   359.3843 C5            1 RES     
   12251 C5        -300.4399  -152.5807   358.2757 C5            1 RES     
   12252 C5        -300.7916  -151.1567   358.7468 C5            1 RES     
   12253 C5        -301.3535  -150.2623   357.6233 C5            1 RES     
   12254 C5        -300.3201  -149.9311   356.5292 C5            1 RES     
   12255 C5        -300.8817  -149.0398   355.4068 C5            1 RES     
   12256 C5        -301.3099  -147.6500   355.8802 C5            1 RES     
   12257 H6        -292.0650  -151.0837   370.5682 H6            1 RES     
   12258 H6        -290.7130  -152.0796   371.1972 H6            1 RES     
   12259 H6        -292.3949  -152.4123   371.7570 H6            1 RES     
   12260 H6        -291.3134  -152.7851   368.8791 H6            1 RES     
   12261 H6        -291.5745  -154.0924   370.0885 H6            1 RES     
   12262 H6        -293.4125  -154.0604   368.4826 H6            1 RES     
   12263 H6        -294.0015  -153.6566   370.1345 H6            1 RES     
   12264 H6        -293.4485  -151.5904   367.8828 H6            1 RES     
   12265 H6        -294.0911  -151.2409   369.5374 H6            1 RES     
   12266 H6        -295.4535  -152.9822   367.3791 H6            1 RES     
   12267 H6        -296.0269  -152.7480   369.0864 H6            1 RES     
   12268 H6        -296.2806  -150.3857   368.8065 H6            1 RES     
   12269 H6        -295.7407  -150.4151   367.0929 H6            1 RES     
   12270 H6        -298.1643  -151.9601   368.2425 H6            1 RES     
   12271 H6        -298.2659  -150.3280   367.5459 H6            1 RES     
   12272 H6        -296.9152  -151.7847   365.5255 H6            1 RES     
   12273 H6        -298.5305  -151.0535   365.4543 H6            1 RES     
   12274 H6        -297.8773  -153.8190   366.4135 H6            1 RES     
   12275 H6        -299.9219  -152.7869   367.4379 H6            1 RES     
   12276 H6        -300.7394  -152.8177   365.8723 H6            1 RES     
   12277 H6        -300.5740  -155.3705   365.9425 H6            1 RES     
   12278 H6        -299.4298  -155.2231   367.3274 H6            1 RES     
   12279 H6        -302.3932  -154.4313   367.4974 H6            1 RES     
   12280 H6        -301.1287  -154.1654   368.7571 H6            1 RES     
   12281 H6        -301.9866  -156.9263   367.6998 H6            1 RES     
   12282 H6        -300.5929  -156.6023   368.7929 H6            1 RES     
   12283 H6        -302.0444  -155.6217   370.5234 H6            1 RES     
   12284 H6        -302.4477  -157.3303   370.1419 H6            1 RES     
   12285 H6        -304.3823  -156.5981   368.7547 H6            1 RES     
   12286 H6        -304.0159  -154.8652   369.1514 H6            1 RES     
   12287 H6        -304.4925  -156.0070   370.4561 H6            1 RES     
   12288 H6        -297.4914  -153.2525   363.9272 H6            1 RES     
   12289 H6        -299.2384  -152.8654   363.8722 H6            1 RES     
   12290 H6        -298.5901  -153.6503   361.9043 H6            1 RES     
   12291 H6        -298.3162  -155.2536   361.4286 H6            1 RES     
   12292 H6        -301.0645  -154.4677   362.5444 H6            1 RES     
   12293 H6        -300.6148  -156.8811   362.1030 H6            1 RES     
   12294 H6        -302.0324  -156.2083   361.2369 H6            1 RES     
   12295 H6        -300.8111  -156.1467   359.0871 H6            1 RES     
   12296 H6        -299.3103  -156.6373   359.9036 H6            1 RES     
   12297 H6        -300.1308  -158.5631   358.8003 H6            1 RES     
   12298 H6        -300.3969  -158.8163   360.5408 H6            1 RES     
   12299 H6        -302.8270  -158.2358   360.2595 H6            1 RES     
   12300 H6        -302.3072  -159.6342   359.2670 H6            1 RES     
   12301 H6        -302.7841  -156.7647   358.2120 H6            1 RES     
   12302 H6        -303.8487  -158.1906   358.0170 H6            1 RES     
   12303 H6        -302.0676  -159.3725   356.7026 H6            1 RES     
   12304 H6        -302.5636  -157.8079   355.9561 H6            1 RES     
   12305 H6        -301.0078  -157.9090   356.8361 H6            1 RES     
   12306 H6        -300.8828  -152.7056   361.0921 H6            1 RES     
   12307 H6        -301.8607  -153.9195   360.2141 H6            1 RES     
   12308 H6        -299.6131  -154.4412   358.8921 H6            1 RES     
   12309 H6        -298.9087  -153.0615   359.7445 H6            1 RES     
   12310 H6        -299.6720  -152.5283   357.4766 H6            1 RES     
   12311 H6        -301.3501  -153.0578   357.8499 H6            1 RES     
   12312 H6        -299.8991  -150.6701   359.1961 H6            1 RES     
   12313 H6        -301.5815  -151.2277   359.5235 H6            1 RES     
   12314 H6        -302.2444  -150.7503   357.1702 H6            1 RES     
   12315 H6        -301.6812  -149.3155   358.1003 H6            1 RES     
   12316 H6        -299.9783  -150.8696   356.0478 H6            1 RES     
   12317 H6        -299.4388  -149.4317   356.9878 H6            1 RES     
   12318 H6        -300.0833  -148.9065   354.6444 H6            1 RES     
   12319 H6        -301.7430  -149.5455   354.9189 H6            1 RES     
   12320 H6        -302.1555  -147.7105   356.5945 H6            1 RES     
   12321 H6        -301.6481  -147.0533   355.0065 H6            1 RES     
   12322 H6        -300.4563  -147.1250   356.3583 H6            1 RES     
   12323 C0        -293.7798  -153.8006   375.5899 C0            1 RES     
   12324 C0        -293.6381  -154.7642   376.7685 C0            1 RES     
   12325 C0        -294.3767  -155.8847   376.5839 C0            1 RES     
   12326 S1        -294.2082  -157.0019   377.8189 S1            1 RES     
   12327 C0        -293.1137  -156.0113   378.6691 C0            1 RES     
   12328 C0        -292.8684  -154.8431   377.9274 C0            1 RES     
   12329 C0        -294.9605  -155.8590   375.2873 C0            1 RES     
   12330 C0        -294.5902  -154.7479   374.6916 C0            1 RES     
   12331 C0        -294.9150  -154.7667   373.2775 C0            1 RES     
   12332 C0        -295.5565  -155.9489   372.9405 C0            1 RES     
   12333 S1        -295.8194  -157.0842   374.3183 S1            1 RES     
   12334 H2        -292.1208  -154.1338   378.2119 H2            1 RES     
   12335 H2        -294.5798  -154.0488   372.5488 H2            1 RES     
   12336 N3        -291.3772  -155.5058   381.9734 N3            1 RES     
   12337 C0        -291.9587  -155.2720   380.7624 C0            1 RES     
   12338 C0        -292.4766  -156.3216   379.9771 C0            1 RES     
   12339 C0        -292.3772  -157.6192   380.5057 C0            1 RES     
   12340 N3        -292.8217  -158.7416   379.8798 N3            1 RES     
   12341 S1        -292.4079  -159.9347   380.9476 S1            1 RES     
   12342 N3        -291.6853  -159.1219   382.1907 N3            1 RES     
   12343 C0        -291.7568  -157.8343   381.7655 C0            1 RES     
   12344 C0        -291.2608  -156.7592   382.4912 C0            1 RES     
   12345 H4        -292.0464  -154.2543   380.4252 H4            1 RES     
   12346 C5        -286.1405  -153.8949   381.8395 C5            1 RES     
   12347 C5        -286.7862  -154.4233   380.5577 C5            1 RES     
   12348 C5        -288.2697  -154.0415   380.4089 C5            1 RES     
   12349 C5        -288.5255  -152.5233   380.3341 C5            1 RES     
   12350 C5        -290.0243  -152.2403   380.1328 C5            1 RES     
   12351 C5        -290.3707  -150.7505   380.2652 C5            1 RES     
   12352 C5        -291.8899  -150.4828   380.1447 C5            1 RES     
   12353 C5        -292.4450  -150.4564   378.6866 C5            1 RES     
   12354 C5        -293.5209  -151.5272   378.3277 C5            1 RES     
   12355 C5        -294.7882  -151.4171   379.2249 C5            1 RES     
   12356 C5        -295.5608  -152.7460   379.3189 C5            1 RES     
   12357 C5        -296.4667  -152.7861   380.5682 C5            1 RES     
   12358 C5        -297.0083  -154.2063   380.8120 C5            1 RES     
   12359 C5        -297.6654  -154.3791   382.1933 C5            1 RES     
   12360 C5        -298.9328  -153.5526   382.3800 C5            1 RES     
   12361 C5        -293.8041  -151.4157   376.7941 C5            1 RES     
   12362 C0        -294.5757  -152.4539   375.8915 C0            1 RES     
   12363 C5        -294.9189  -151.6591   374.5576 C5            1 RES     
   12364 C5        -296.4034  -151.1746   374.4481 C5            1 RES     
   12365 C5        -297.3739  -152.2520   373.8612 C5            1 RES     
   12366 C5        -297.2604  -152.4932   372.3375 C5            1 RES     
   12367 C5        -298.0918  -153.6810   371.8197 C5            1 RES     
   12368 C5        -299.6176  -153.4683   371.8115 C5            1 RES     
   12369 C5        -300.1145  -152.3289   370.8956 C5            1 RES     
   12370 C5        -299.7441  -152.5236   369.4216 C5            1 RES     
   12371 C5        -296.5591  -149.7773   373.7606 C5            1 RES     
   12372 C5        -295.7553  -149.5206   372.4597 C5            1 RES     
   12373 C5        -296.1451  -148.2024   371.7532 C5            1 RES     
   12374 C5        -295.9345  -146.9400   372.6106 C5            1 RES     
   12375 C5        -296.3193  -145.6358   371.8834 C5            1 RES     
   12376 C5        -295.3988  -145.3035   370.6930 C5            1 RES     
   12377 C5        -295.7842  -144.0026   369.9660 C5            1 RES     
   12378 C5        -295.6561  -142.7504   370.8348 C5            1 RES     
   12379 H6        -286.1123  -152.7864   381.8436 H6            1 RES     
   12380 H6        -285.0935  -154.2609   381.9014 H6            1 RES     
   12381 H6        -286.6943  -154.2558   382.7321 H6            1 RES     
   12382 H6        -286.2127  -154.0585   379.6792 H6            1 RES     
   12383 H6        -286.7206  -155.5338   380.5767 H6            1 RES     
   12384 H6        -288.6497  -154.5178   379.4791 H6            1 RES     
   12385 H6        -288.8335  -154.4666   381.2686 H6            1 RES     
   12386 H6        -287.9476  -152.0747   379.4968 H6            1 RES     
   12387 H6        -288.1991  -152.0587   381.2883 H6            1 RES     
   12388 H6        -290.3504  -152.6355   379.1470 H6            1 RES     
   12389 H6        -290.5682  -152.7598   380.9458 H6            1 RES     
   12390 H6        -290.0601  -150.4476   381.2899 H6            1 RES     
   12391 H6        -289.8065  -150.1249   379.5405 H6            1 RES     
   12392 H6        -292.4190  -151.1918   380.8131 H6            1 RES     
   12393 H6        -292.0697  -149.4677   380.5582 H6            1 RES     
   12394 H6        -291.5765  -150.5877   378.0026 H6            1 RES     
   12395 H6        -292.8505  -149.4443   378.4700 H6            1 RES     
   12396 H6        -293.0245  -152.4362   378.5842 H6            1 RES     
   12397 H6        -294.4458  -151.2178   380.2548 H6            1 RES     
   12398 H6        -295.4380  -150.5579   378.9509 H6            1 RES     
   12399 H6        -296.1211  -152.9580   378.3838 H6            1 RES     
   12400 H6        -294.8107  -153.5503   379.4704 H6            1 RES     
   12401 H6        -297.2885  -152.0431   380.4837 H6            1 RES     
   12402 H6        -295.8439  -152.5243   381.4525 H6            1 RES     
   12403 H6        -297.7089  -154.4970   380.0008 H6            1 RES     
   12404 H6        -296.1480  -154.9126   380.7965 H6            1 RES     
   12405 H6        -296.9339  -154.1147   382.9894 H6            1 RES     
   12406 H6        -297.9307  -155.4512   382.3203 H6            1 RES     
   12407 H6        -299.6869  -153.8321   381.6150 H6            1 RES     
   12408 H6        -298.7143  -152.4674   382.3125 H6            1 RES     
   12409 H6        -299.3549  -153.7587   383.3872 H6            1 RES     
   12410 H6        -292.8252  -151.2994   376.2778 H6            1 RES     
   12411 H6        -294.3341  -150.4382   376.7097 H6            1 RES     
   12412 H6        -294.2657  -150.7621   374.5190 H6            1 RES     
   12413 H6        -294.6091  -152.1653   373.6329 H6            1 RES     
   12414 H6        -296.7555  -151.0007   375.4909 H6            1 RES     
   12415 H6        -297.1988  -153.2036   374.4084 H6            1 RES     
   12416 H6        -298.4195  -151.9367   374.0657 H6            1 RES     
   12417 H6        -297.5611  -151.5947   371.7714 H6            1 RES     
   12418 H6        -296.2095  -152.7040   372.0911 H6            1 RES     
   12419 H6        -297.7688  -153.9106   370.7826 H6            1 RES     
   12420 H6        -297.8569  -154.5764   372.4297 H6            1 RES     
   12421 H6        -299.9706  -153.2802   372.8466 H6            1 RES     
   12422 H6        -300.0890  -154.4141   371.4642 H6            1 RES     
   12423 H6        -299.7295  -151.3486   371.2438 H6            1 RES     
   12424 H6        -301.2231  -152.2954   370.9662 H6            1 RES     
   12425 H6        -300.1382  -153.4918   369.0457 H6            1 RES     
   12426 H6        -300.1863  -151.7039   368.8167 H6            1 RES     
   12427 H6        -298.6451  -152.4913   369.2749 H6            1 RES     
   12428 H6        -296.2047  -149.0163   374.4878 H6            1 RES     
   12429 H6        -297.6431  -149.5938   373.5941 H6            1 RES     
   12430 H6        -295.9049  -150.3158   371.7154 H6            1 RES     
   12431 H6        -294.6703  -149.5023   372.6853 H6            1 RES     
   12432 H6        -295.5234  -148.1368   370.8366 H6            1 RES     
   12433 H6        -297.2122  -148.2580   371.4441 H6            1 RES     
   12434 H6        -294.8774  -146.8777   372.9482 H6            1 RES     
   12435 H6        -296.5860  -147.0101   373.5066 H6            1 RES     
   12436 H6        -297.3759  -145.6987   371.5415 H6            1 RES     
   12437 H6        -296.2439  -144.8179   372.6295 H6            1 RES     
   12438 H6        -295.4590  -146.1165   369.9414 H6            1 RES     
   12439 H6        -294.3466  -145.2292   371.0449 H6            1 RES     
   12440 H6        -295.1021  -143.8822   369.0961 H6            1 RES     
   12441 H6        -296.8239  -144.0798   369.5804 H6            1 RES     
   12442 H6        -296.3647  -142.7770   371.6869 H6            1 RES     
   12443 H6        -295.8960  -141.8544   370.2240 H6            1 RES     
   12444 H6        -294.6184  -142.6506   371.2174 H6            1 RES     
   12445 C0        -287.9096  -156.2568   386.3453 C0            1 RES     
   12446 C0        -287.9320  -157.5223   387.2032 C0            1 RES     
   12447 C0        -289.0187  -158.2847   386.9332 C0            1 RES     
   12448 S1        -289.0592  -159.7145   387.8025 S1            1 RES     
   12449 C0        -287.5902  -159.3657   388.5916 C0            1 RES     
   12450 C0        -287.0777  -158.1500   388.1076 C0            1 RES     
   12451 C0        -289.7366  -157.7176   385.8443 C0            1 RES     
   12452 C0        -289.1059  -156.6319   385.4570 C0            1 RES     
   12453 C0        -289.6134  -156.1439   384.1881 C0            1 RES     
   12454 C0        -290.6514  -156.9455   383.7378 C0            1 RES     
   12455 S1        -291.0803  -158.3123   384.8351 S1            1 RES     
   12456 H2        -286.1050  -157.7952   388.3740 H2            1 RES     
   12457 H2        -289.1646  -155.3688   383.5911 H2            1 RES     
   12458 N3        -285.3393  -160.3590   391.4440 N3            1 RES     
   12459 C0        -285.9739  -159.6274   390.4841 C0            1 RES     
   12460 C0        -286.9155  -160.2112   389.6128 C0            1 RES     
   12461 C0        -287.1794  -161.5798   389.7874 C0            1 RES     
   12462 N3        -288.0543  -162.2975   389.0333 N3            1 RES     
   12463 S1        -287.9145  -163.8167   389.6715 S1            1 RES     
   12464 N3        -286.7964  -163.6408   390.8744 N3            1 RES     
   12465 C0        -286.4954  -162.3195   390.7890 C0            1 RES     
   12466 C0        -285.5742  -161.6887   391.6148 C0            1 RES     
   12467 H4        -285.7652  -158.5739   390.4225 H4            1 RES     
   12468 C5        -279.9384  -160.3200   390.5139 C5            1 RES     
   12469 C5        -280.8959  -160.2463   389.3235 C5            1 RES     
   12470 C5        -282.1739  -159.4367   389.6061 C5            1 RES     
   12471 C5        -281.9190  -157.9553   389.9475 C5            1 RES     
   12472 C5        -283.2515  -157.2163   390.1608 C5            1 RES     
   12473 C5        -283.0616  -155.7960   390.7120 C5            1 RES     
   12474 C5        -284.4068  -155.0889   391.0028 C5            1 RES     
   12475 C5        -285.1203  -154.4820   389.7548 C5            1 RES     
   12476 C5        -286.5297  -155.0531   389.4076 C5            1 RES     
   12477 C5        -287.5495  -154.8586   390.5674 C5            1 RES     
   12478 C5        -288.6982  -155.8835   390.5200 C5            1 RES     
   12479 C5        -289.3814  -156.0310   391.8965 C5            1 RES     
   12480 C5        -290.3237  -157.2480   391.9174 C5            1 RES     
   12481 C5        -290.8003  -157.6254   393.3316 C5            1 RES     
   12482 C5        -291.6822  -156.5682   393.9868 C5            1 RES     
   12483 C5        -286.9719  -154.4227   388.0469 C5            1 RES     
   12484 C0        -288.1628  -154.8905   387.1245 C0            1 RES     
   12485 C5        -288.4061  -153.6773   386.1256 C5            1 RES     
   12486 C5        -289.6455  -152.7849   386.4696 C5            1 RES     
   12487 C5        -290.9907  -153.3250   385.8815 C5            1 RES     
   12488 C5        -291.1785  -153.1315   384.3584 C5            1 RES     
   12489 C5        -292.4209  -153.8318   383.7784 C5            1 RES     
   12490 C5        -293.7748  -153.2059   384.1641 C5            1 RES     
   12491 C5        -293.9885  -151.7568   383.6758 C5            1 RES     
   12492 C5        -293.9143  -151.6076   382.1526 C5            1 RES     
   12493 C5        -289.4234  -151.2629   386.1808 C5            1 RES     
   12494 C5        -288.7708  -150.8737   384.8291 C5            1 RES     
   12495 C5        -288.7959  -149.3526   384.5565 C5            1 RES     
   12496 C5        -288.0603  -148.5090   385.6149 C5            1 RES     
   12497 C5        -288.0884  -146.9960   385.3183 C5            1 RES     
   12498 C5        -287.2863  -146.6028   384.0626 C5            1 RES     
   12499 C5        -287.3159  -145.0927   383.7656 C5            1 RES     
   12500 C5        -286.6590  -144.2386   384.8510 C5            1 RES     
   12501 H6        -279.5436  -159.3161   390.7703 H6            1 RES     
   12502 H6        -279.0745  -160.9671   390.2511 H6            1 RES     
   12503 H6        -280.4497  -160.7553   391.3986 H6            1 RES     
   12504 H6        -280.3630  -159.8171   388.4485 H6            1 RES     
   12505 H6        -281.2006  -161.2853   389.0673 H6            1 RES     
   12506 H6        -282.8167  -159.4931   388.7010 H6            1 RES     
   12507 H6        -282.7203  -159.9182   390.4470 H6            1 RES     
   12508 H6        -281.3485  -157.4628   389.1301 H6            1 RES     
   12509 H6        -281.3266  -157.9017   390.8850 H6            1 RES     
   12510 H6        -283.8251  -157.1973   389.2095 H6            1 RES     
   12511 H6        -283.8174  -157.7760   390.9310 H6            1 RES     
   12512 H6        -282.5277  -155.9064   391.6820 H6            1 RES     
   12513 H6        -282.4292  -155.1708   390.0456 H6            1 RES     
   12514 H6        -285.0420  -155.7837   391.5886 H6            1 RES     
   12515 H6        -284.1797  -154.2316   391.6715 H6            1 RES     
   12516 H6        -284.4496  -154.6460   388.8815 H6            1 RES     
   12517 H6        -285.1931  -153.3796   389.8776 H6            1 RES     
   12518 H6        -286.3324  -156.0985   389.3261 H6            1 RES     
   12519 H6        -287.0195  -155.0741   391.5110 H6            1 RES     
   12520 H6        -287.9089  -153.8105   390.6553 H6            1 RES     
   12521 H6        -289.4223  -155.6460   389.7122 H6            1 RES     
   12522 H6        -288.2441  -156.8738   390.3066 H6            1 RES     
   12523 H6        -289.9132  -155.0961   392.1752 H6            1 RES     
   12524 H6        -288.5895  -156.2256   392.6538 H6            1 RES     
   12525 H6        -291.1874  -157.0793   391.2400 H6            1 RES     
   12526 H6        -289.7578  -158.1309   391.5440 H6            1 RES     
   12527 H6        -289.9186  -157.8223   393.9816 H6            1 RES     
   12528 H6        -291.3859  -158.5678   393.2611 H6            1 RES     
   12529 H6        -292.5856  -156.3878   393.3677 H6            1 RES     
   12530 H6        -291.1276  -155.6181   394.1271 H6            1 RES     
   12531 H6        -292.0031  -156.9326   394.9864 H6            1 RES     
   12532 H6        -286.0925  -154.4407   387.3651 H6            1 RES     
   12533 H6        -287.1537  -153.3557   388.3147 H6            1 RES     
   12534 H6        -287.5045  -153.0298   386.1515 H6            1 RES     
   12535 H6        -288.4148  -153.9564   385.0629 H6            1 RES     
   12536 H6        -289.7700  -152.8322   387.5760 H6            1 RES     
   12537 H6        -291.0665  -154.4041   386.1374 H6            1 RES     
   12538 H6        -291.8327  -152.8027   386.3840 H6            1 RES     
   12539 H6        -291.2402  -152.0601   384.1005 H6            1 RES     
   12540 H6        -290.3027  -153.5476   383.8393 H6            1 RES     
   12541 H6        -292.3412  -153.8289   382.6710 H6            1 RES     
   12542 H6        -292.4135  -154.8947   384.0934 H6            1 RES     
   12543 H6        -293.8965  -153.2377   385.2666 H6            1 RES     
   12544 H6        -294.5771  -153.8361   383.7208 H6            1 RES     
   12545 H6        -293.2552  -151.0711   384.1473 H6            1 RES     
   12546 H6        -295.0017  -151.4351   384.0001 H6            1 RES     
   12547 H6        -294.6560  -152.2717   381.6597 H6            1 RES     
   12548 H6        -294.1396  -150.5571   381.8714 H6            1 RES     
   12549 H6        -292.8990  -151.8442   381.7738 H6            1 RES     
   12550 H6        -288.7383  -150.8799   386.9665 H6            1 RES     
   12551 H6        -290.3970  -150.7417   386.3103 H6            1 RES     
   12552 H6        -289.2786  -151.3406   383.9731 H6            1 RES     
   12553 H6        -287.7209  -151.2281   384.8023 H6            1 RES     
   12554 H6        -288.3227  -149.1992   383.5648 H6            1 RES     
   12555 H6        -289.8532  -149.0129   384.4915 H6            1 RES     
   12556 H6        -287.0061  -148.8481   385.7106 H6            1 RES     
   12557 H6        -288.5656  -148.6520   386.5929 H6            1 RES     
   12558 H6        -289.1428  -146.6563   385.2183 H6            1 RES     
   12559 H6        -287.6419  -146.4880   386.1981 H6            1 RES     
   12560 H6        -287.7176  -147.1089   383.1754 H6            1 RES     
   12561 H6        -286.2307  -146.9336   384.1758 H6            1 RES     
   12562 H6        -286.7616  -144.9199   382.8173 H6            1 RES     
   12563 H6        -288.3655  -144.7580   383.6170 H6            1 RES     
   12564 H6        -287.2094  -144.3129   385.8104 H6            1 RES     
   12565 H6        -286.6710  -143.1734   384.5366 H6            1 RES     
   12566 H6        -285.6043  -144.5510   385.0024 H6            1 RES     
   12567 C0        -281.7409  -163.2998   394.6228 C0            1 RES     
   12568 C0        -282.0615  -164.7011   395.1438 C0            1 RES     
   12569 C0        -283.3661  -165.0133   394.9551 C0            1 RES     
   12570 S1        -283.7565  -166.5630   395.4526 S1            1 RES     
   12571 C0        -282.1599  -166.8882   395.9494 C0            1 RES     
   12572 C0        -281.3461  -165.7796   395.6601 C0            1 RES     
   12573 C0        -284.0003  -163.9745   394.2193 C0            1 RES     
   12574 C0        -283.1059  -163.0462   393.9644 C0            1 RES     
   12575 C0        -283.5952  -162.0862   392.9925 C0            1 RES     
   12576 C0        -284.8927  -162.3951   392.6131 C0            1 RES     
   12577 S1        -285.5926  -163.8448   393.4284 S1            1 RES     
   12578 H2        -280.2836  -165.8068   395.7759 H2            1 RES     
   12579 H2        -283.0031  -161.3293   392.5077 H2            1 RES     
   12580 N3        -279.9898  -169.2637   397.9085 N3            1 RES     
   12581 C0        -280.4736  -168.1357   397.3143 C0            1 RES     
   12582 C0        -281.6679  -168.1495   396.5659 C0            1 RES     
   12583 C0        -282.3438  -169.3773   396.4709 C0            1 RES     
   12584 N3        -283.5039  -169.5665   395.7871 N3            1 RES     
   12585 S1        -283.7882  -171.1811   396.0045 S1            1 RES     
   12586 N3        -282.5182  -171.6867   396.9315 N3            1 RES     
   12587 C0        -281.8108  -170.5387   397.0914 C0            1 RES     
   12588 C0        -280.6263  -170.4630   397.8124 C0            1 RES     
   12589 H4        -279.9379  -167.2136   397.4552 H4            1 RES     
   12590 C5        -275.0692  -170.4746   395.8212 C5            1 RES     
   12591 C5        -276.1048  -169.7896   394.9281 C5            1 RES     
   12592 C5        -276.9886  -168.7730   395.6724 C5            1 RES     
   12593 C5        -276.2113  -167.5907   396.2839 C5            1 RES     
   12594 C5        -277.1791  -166.6030   396.9584 C5            1 RES     
   12595 C5        -276.4533  -165.5197   397.7688 C5            1 RES     
   12596 C5        -277.4327  -164.5803   398.5120 C5            1 RES     
   12597 C5        -278.0718  -163.4597   397.6340 C5            1 RES     
   12598 C5        -279.6248  -163.4837   397.4897 C5            1 RES     
   12599 C5        -280.3489  -163.3586   398.8619 C5            1 RES     
   12600 C5        -281.7672  -163.9584   398.8364 C5            1 RES     
   12601 C5        -282.2605  -164.3039   400.2579 C5            1 RES     
   12602 C5        -283.5406  -165.1574   400.2057 C5            1 RES     
   12603 C5        -283.9122  -165.7821   401.5626 C5            1 RES     
   12604 C5        -284.2920  -164.7596   402.6279 C5            1 RES     
   12605 C5        -280.0188  -162.3851   396.4494 C5            1 RES     
   12606 C0        -281.4143  -162.2078   395.7359 C0            1 RES     
   12607 C5        -281.3787  -160.7383   395.1293 C5            1 RES     
   12608 C5        -282.1904  -159.6749   395.9423 C5            1 RES     
   12609 C5        -283.7070  -159.6182   395.5628 C5            1 RES     
   12610 C5        -284.0316  -158.9427   394.2096 C5            1 RES     
   12611 C5        -285.5042  -159.0637   393.7774 C5            1 RES     
   12612 C5        -286.5054  -158.2238   394.5933 C5            1 RES     
   12613 C5        -286.2922  -156.6965   394.5180 C5            1 RES     
   12614 C5        -286.3871  -156.1352   393.0954 C5            1 RES     
   12615 C5        -281.5186  -158.2618   395.9744 C5            1 RES     
   12616 C5        -280.9701  -157.6940   394.6398 C5            1 RES     
   12617 C5        -280.5270  -156.2170   394.7429 C5            1 RES     
   12618 C5        -279.4123  -155.9626   395.7754 C5            1 RES     
   12619 C5        -278.9780  -154.4850   395.8545 C5            1 RES     
   12620 C5        -278.2753  -153.9838   394.5778 C5            1 RES     
   12621 C5        -277.8434  -152.5083   394.6563 C5            1 RES     
   12622 C5        -276.7949  -152.2301   395.7345 C5            1 RES     
   12623 H6        -274.3317  -169.7431   396.2092 H6            1 RES     
   12624 H6        -274.5149  -171.2320   395.2269 H6            1 RES     
   12625 H6        -275.5665  -170.9876   396.6716 H6            1 RES     
   12626 H6        -275.5879  -169.2912   394.0807 H6            1 RES     
   12627 H6        -276.7697  -170.5786   394.5117 H6            1 RES     
   12628 H6        -277.7339  -168.3789   394.9479 H6            1 RES     
   12629 H6        -277.5402  -169.3055   396.4785 H6            1 RES     
   12630 H6        -275.6302  -167.0618   395.4972 H6            1 RES     
   12631 H6        -275.5094  -167.9826   397.0497 H6            1 RES     
   12632 H6        -277.8413  -166.1460   396.1923 H6            1 RES     
   12633 H6        -277.7848  -167.1809   397.6837 H6            1 RES     
   12634 H6        -275.8559  -166.0545   398.5402 H6            1 RES     
   12635 H6        -275.7493  -164.9310   397.1419 H6            1 RES     
   12636 H6        -278.1737  -165.2081   399.0469 H6            1 RES     
   12637 H6        -276.8425  -164.0562   399.2935 H6            1 RES     
   12638 H6        -277.6230  -163.5427   396.6186 H6            1 RES     
   12639 H6        -277.7566  -162.4676   398.0240 H6            1 RES     
   12640 H6        -279.7991  -164.4709   397.1240 H6            1 RES     
   12641 H6        -279.7938  -163.9808   399.5847 H6            1 RES     
   12642 H6        -280.3240  -162.3254   399.2708 H6            1 RES     
   12643 H6        -282.4772  -163.3014   398.2909 H6            1 RES     
   12644 H6        -281.7023  -164.9287   398.3009 H6            1 RES     
   12645 H6        -282.4072  -163.3815   400.8596 H6            1 RES     
   12646 H6        -281.4803  -164.9261   400.7503 H6            1 RES     
   12647 H6        -284.3853  -164.5621   399.7989 H6            1 RES     
   12648 H6        -283.3580  -166.0141   399.5188 H6            1 RES     
   12649 H6        -283.0639  -166.4002   401.9328 H6            1 RES     
   12650 H6        -284.7810  -166.4581   401.4077 H6            1 RES     
   12651 H6        -285.1617  -164.1595   402.2880 H6            1 RES     
   12652 H6        -283.4397  -164.0883   402.8575 H6            1 RES     
   12653 H6        -284.5722  -165.2950   403.5606 H6            1 RES     
   12654 H6        -279.3001  -162.4492   395.6022 H6            1 RES     
   12655 H6        -279.7967  -161.4371   396.9929 H6            1 RES     
   12656 H6        -280.3192  -160.4076   395.1018 H6            1 RES     
   12657 H6        -281.6284  -160.6800   394.0608 H6            1 RES     
   12658 H6        -282.1672  -160.0068   397.0058 H6            1 RES     
   12659 H6        -284.1000  -160.6579   395.5699 H6            1 RES     
   12660 H6        -284.2486  -159.0510   396.3499 H6            1 RES     
   12661 H6        -283.7696  -157.8707   394.2298 H6            1 RES     
   12662 H6        -283.4254  -159.4174   393.4242 H6            1 RES     
   12663 H6        -285.5841  -158.7595   392.7126 H6            1 RES     
   12664 H6        -285.8059  -160.1294   393.8254 H6            1 RES     
   12665 H6        -286.4749  -158.5413   395.6562 H6            1 RES     
   12666 H6        -287.5251  -158.4445   394.2076 H6            1 RES     
   12667 H6        -285.3145  -156.4140   394.9590 H6            1 RES     
   12668 H6        -287.0851  -156.2124   395.1282 H6            1 RES     
   12669 H6        -287.3684  -156.3893   392.6411 H6            1 RES     
   12670 H6        -286.2880  -155.0295   393.1255 H6            1 RES     
   12671 H6        -285.5716  -156.5261   392.4531 H6            1 RES     
   12672 H6        -280.6422  -158.3343   396.6528 H6            1 RES     
   12673 H6        -282.2357  -157.5496   396.4380 H6            1 RES     
   12674 H6        -281.7188  -157.7274   393.8355 H6            1 RES     
   12675 H6        -280.1122  -158.3053   394.2953 H6            1 RES     
   12676 H6        -280.1736  -155.9196   393.7341 H6            1 RES     
   12677 H6        -281.4096  -155.5902   394.9989 H6            1 RES     
   12678 H6        -278.5281  -156.5969   395.5493 H6            1 RES     
   12679 H6        -279.7941  -156.2374   396.7808 H6            1 RES     
   12680 H6        -279.8629  -153.8489   396.0767 H6            1 RES     
   12681 H6        -278.2695  -154.4038   396.7047 H6            1 RES     
   12682 H6        -278.9700  -154.0655   393.7176 H6            1 RES     
   12683 H6        -277.3846  -154.6161   394.3699 H6            1 RES     
   12684 H6        -277.4019  -152.2288   393.6748 H6            1 RES     
   12685 H6        -278.7322  -151.8639   394.8304 H6            1 RES     
   12686 H6        -277.1986  -152.4240   396.7486 H6            1 RES     
   12687 H6        -276.4967  -151.1612   395.6885 H6            1 RES     
   12688 H6        -275.8935  -152.8566   395.5672 H6            1 RES     
   12689 C0        -277.1635  -173.8935   399.4178 C0            1 RES     
   12690 C0        -277.8546  -175.2365   399.6556 C0            1 RES     
   12691 C0        -279.2017  -175.0998   399.6981 C0            1 RES     
   12692 S1        -280.0105  -176.5519   399.8947 S1            1 RES     
   12693 C0        -278.5593  -177.4435   399.9290 C0            1 RES     
   12694 C0        -277.4728  -176.5745   399.7310 C0            1 RES     
   12695 C0        -279.5516  -173.7567   399.3876 C0            1 RES     
   12696 C0        -278.4449  -173.0853   399.1618 C0            1 RES     
   12697 C0        -278.7190  -171.7858   398.5769 C0            1 RES     
   12698 C0        -280.0851  -171.5923   398.4382 C0            1 RES     
   12699 S1        -281.1048  -172.9590   399.0285 S1            1 RES     
   12700 H2        -276.4745  -176.9320   399.5948 H2            1 RES     
   12701 H2        -277.9834  -171.1187   398.1617 H2            1 RES     
   12702 N3        -277.0487  -180.7980   400.7385 N3            1 RES     
   12703 C0        -277.2090  -179.4572   400.5489 C0            1 RES     
   12704 C0        -278.4326  -178.9150   400.1068 C0            1 RES     
   12705 C0        -279.4839  -179.8193   399.8824 C0            1 RES     
   12706 N3        -280.7247  -179.4659   399.4528 N3            1 RES     
   12707 S1        -281.4953  -180.9252   399.3453 S1            1 RES     
   12708 N3        -280.3485  -182.0157   399.8180 N3            1 RES     
   12709 C0        -279.2852  -181.2122   400.0780 C0            1 RES     
   12710 C0        -278.0540  -181.6870   400.5108 C0            1 RES     
   12711 H4        -276.3835  -178.8063   400.7768 H4            1 RES     
   12712 C5        -273.1531  -182.6776   397.3728 C5            1 RES     
   12713 C5        -274.0170  -181.4990   396.9213 C5            1 RES     
   12714 C5        -274.3997  -180.5392   398.0619 C5            1 RES     
   12715 C5        -273.1965  -179.8561   398.7414 C5            1 RES     
   12716 C5        -273.6769  -178.8787   399.8280 C5            1 RES     
   12717 C5        -272.5267  -178.3298   400.6840 C5            1 RES     
   12718 C5        -273.0243  -177.4133   401.8271 C5            1 RES     
   12719 C5        -273.3717  -175.9525   401.4022 C5            1 RES     
   12720 C5        -274.8486  -175.4956   401.6100 C5            1 RES     
   12721 C5        -275.2902  -175.5792   403.1003 C5            1 RES     
   12722 C5        -276.8159  -175.7211   403.2556 C5            1 RES     
   12723 C5        -277.1914  -176.3141   404.6306 C5            1 RES     
   12724 C5        -278.6761  -176.7189   404.6703 C5            1 RES     
   12725 C5        -279.0398  -177.5824   405.8915 C5            1 RES     
   12726 C5        -278.9054  -176.8529   407.2235 C5            1 RES     
   12727 C5        -274.9974  -174.0763   400.9713 C5            1 RES     
   12728 C0        -276.3404  -173.3130   400.6522 C0            1 RES     
   12729 C5        -275.9044  -171.8025   400.4136 C5            1 RES     
   12730 C5        -276.1947  -170.8403   401.6138 C5            1 RES     
   12731 C5        -277.6438  -170.2509   401.6098 C5            1 RES     
   12732 C5        -277.9121  -169.1464   400.5607 C5            1 RES     
   12733 C5        -279.3866  -168.7163   400.4553 C5            1 RES     
   12734 C5        -279.9274  -167.9060   401.6488 C5            1 RES     
   12735 C5        -279.2322  -166.5479   401.8863 C5            1 RES     
   12736 C5        -279.3339  -165.5920   400.6931 C5            1 RES     
   12737 C5        -275.0945  -169.7471   401.8229 C5            1 RES     
   12738 C5        -274.5815  -168.9918   400.5696 C5            1 RES     
   12739 C5        -273.6635  -167.7967   400.9122 C5            1 RES     
   12740 C5        -272.3945  -168.1797   401.6972 C5            1 RES     
   12741 C5        -271.4878  -166.9746   402.0192 C5            1 RES     
   12742 C5        -270.8450  -166.3405   400.7704 C5            1 RES     
   12743 C5        -269.9414  -165.1365   401.0920 C5            1 RES     
   12744 C5        -268.7198  -165.4925   401.9406 C5            1 RES     
   12745 H6        -272.1680  -182.3300   397.7446 H6            1 RES     
   12746 H6        -272.9708  -183.3518   396.5089 H6            1 RES     
   12747 H6        -273.6681  -183.2555   398.1694 H6            1 RES     
   12748 H6        -273.4883  -180.9409   396.1197 H6            1 RES     
   12749 H6        -274.9576  -181.9113   396.4930 H6            1 RES     
   12750 H6        -275.0658  -179.7574   397.6365 H6            1 RES     
   12751 H6        -274.9780  -181.1066   398.8242 H6            1 RES     
   12752 H6        -272.5892  -179.3059   397.9898 H6            1 RES     
   12753 H6        -272.5645  -180.6358   399.2161 H6            1 RES     
   12754 H6        -274.2503  -178.0506   399.3593 H6            1 RES     
   12755 H6        -274.3320  -179.4488   400.5156 H6            1 RES     
   12756 H6        -272.0387  -179.2124   401.1543 H6            1 RES     
   12757 H6        -271.7625  -177.8063   400.0700 H6            1 RES     
   12758 H6        -273.8489  -177.9353   402.3533 H6            1 RES     
   12759 H6        -272.1903  -177.3291   402.5558 H6            1 RES     
   12760 H6        -273.1230  -175.8574   400.3213 H6            1 RES     
   12761 H6        -272.6937  -175.2486   401.9319 H6            1 RES     
   12762 H6        -275.3901  -176.2417   401.0728 H6            1 RES     
   12763 H6        -274.8775  -176.5154   403.5136 H6            1 RES     
   12764 H6        -274.8666  -174.7615   403.7227 H6            1 RES     
   12765 H6        -277.3366  -174.7614   403.0530 H6            1 RES     
   12766 H6        -277.1524  -176.4695   402.5079 H6            1 RES     
   12767 H6        -276.9377  -175.6059   405.4482 H6            1 RES     
   12768 H6        -276.6010  -177.2462   404.7753 H6            1 RES     
   12769 H6        -279.3235  -175.8183   404.6148 H6            1 RES     
   12770 H6        -278.8864  -177.3522   403.7793 H6            1 RES     
   12771 H6        -278.4017  -178.4943   405.9062 H6            1 RES     
   12772 H6        -280.0963  -177.9106   405.7829 H6            1 RES     
   12773 H6        -279.5652  -175.9604   407.2381 H6            1 RES     
   12774 H6        -277.8554  -176.5462   407.4056 H6            1 RES     
   12775 H6        -279.2137  -177.5363   408.0439 H6            1 RES     
   12776 H6        -274.4670  -174.0891   399.9931 H6            1 RES     
   12777 H6        -274.3993  -173.4314   401.6568 H6            1 RES     
   12778 H6        -274.8102  -171.7902   400.2262 H6            1 RES     
   12779 H6        -276.2678  -171.3663   399.4728 H6            1 RES     
   12780 H6        -276.1341  -171.4613   402.5370 H6            1 RES     
   12781 H6        -278.3545  -171.0928   401.4622 H6            1 RES     
   12782 H6        -277.8505  -169.8106   402.6087 H6            1 RES     
   12783 H6        -277.3091  -168.2462   400.7711 H6            1 RES     
   12784 H6        -277.6143  -169.5208   399.5703 H6            1 RES     
   12785 H6        -279.5095  -168.1042   399.5372 H6            1 RES     
   12786 H6        -280.0150  -169.6196   400.3198 H6            1 RES     
   12787 H6        -279.8553  -168.5157   402.5731 H6            1 RES     
   12788 H6        -281.0060  -167.7080   401.4621 H6            1 RES     
   12789 H6        -278.1645  -166.6937   402.1491 H6            1 RES     
   12790 H6        -279.7256  -166.0612   402.7550 H6            1 RES     
   12791 H6        -280.3973  -165.4154   400.4251 H6            1 RES     
   12792 H6        -278.8702  -164.6182   400.9574 H6            1 RES     
   12793 H6        -278.7929  -165.9907   399.8105 H6            1 RES     
   12794 H6        -274.2059  -170.2583   402.2503 H6            1 RES     
   12795 H6        -275.4620  -169.0302   402.5893 H6            1 RES     
   12796 H6        -275.4038  -168.5765   399.9697 H6            1 RES     
   12797 H6        -274.0324  -169.6910   399.9076 H6            1 RES     
   12798 H6        -273.3766  -167.3291   399.9478 H6            1 RES     
   12799 H6        -274.2429  -167.0506   401.4996 H6            1 RES     
   12800 H6        -271.8119  -168.9419   401.1359 H6            1 RES     
   12801 H6        -272.7008  -168.6178   402.6700 H6            1 RES     
   12802 H6        -272.0710  -166.2094   402.5774 H6            1 RES     
   12803 H6        -270.6808  -167.3484   402.6828 H6            1 RES     
   12804 H6        -271.6407  -165.9681   400.0942 H6            1 RES     
   12805 H6        -270.2531  -167.1081   400.2254 H6            1 RES     
   12806 H6        -269.5744  -164.7179   400.1294 H6            1 RES     
   12807 H6        -270.5322  -164.3485   401.6073 H6            1 RES     
   12808 H6        -269.0185  -165.8530   402.9454 H6            1 RES     
   12809 H6        -268.0933  -164.5860   402.0796 H6            1 RES     
   12810 H6        -268.1103  -166.2696   401.4329 H6            1 RES     
   12811 C0        -275.7372  -186.2659   400.4482 C0            1 RES     
   12812 C0        -276.7943  -187.3686   400.5151 C0            1 RES     
   12813 C0        -277.9996  -186.8772   400.8907 C0            1 RES     
   12814 S1        -279.2085  -188.0346   400.9196 S1            1 RES     
   12815 C0        -278.1459  -189.2675   400.4170 C0            1 RES     
   12816 C0        -276.8717  -188.7208   400.1879 C0            1 RES     
   12817 C0        -277.9238  -185.4605   400.9894 C0            1 RES     
   12818 C0        -276.7003  -185.0920   400.6834 C0            1 RES     
   12819 C0        -276.6067  -183.6561   400.4954 C0            1 RES     
   12820 C0        -277.8362  -183.0545   400.7171 C0            1 RES     
   12821 S1        -279.1583  -184.1896   401.1860 S1            1 RES     
   12822 H2        -276.0782  -189.2884   399.7507 H2            1 RES     
   12823 H2        -275.7573  -183.1317   400.0928 H2            1 RES     
   12824 N3        -277.7366  -192.9950   400.0589 N3            1 RES     
   12825 C0        -277.4677  -191.6690   400.2288 C0            1 RES     
   12826 C0        -278.4911  -190.7000   400.2129 C0            1 RES     
   12827 C0        -279.8034  -191.1652   400.0263 C0            1 RES     
   12828 N3        -280.9039  -190.3676   399.9820 N3            1 RES     
   12829 S1        -282.1221  -191.4531   399.7131 S1            1 RES     
   12830 N3        -281.3480  -192.9106   399.6472 N3            1 RES     
   12831 C0        -280.0529  -192.5514   399.8413 C0            1 RES     
   12832 C0        -279.0013  -193.4582   399.8624 C0            1 RES     
   12833 H4        -276.4496  -191.3729   400.4104 H4            1 RES     
   12834 C5        -275.1984  -194.8234   395.5589 C5            1 RES     
   12835 C5        -275.6764  -193.3712   395.6017 C5            1 RES     
   12836 C5        -275.5549  -192.7201   396.9909 C5            1 RES     
   12837 C5        -274.1105  -192.6329   397.5221 C5            1 RES     
   12838 C5        -274.0819  -191.9225   398.8865 C5            1 RES     
   12839 C5        -272.7067  -191.9948   399.5652 C5            1 RES     
   12840 C5        -272.7065  -191.3517   400.9726 C5            1 RES     
   12841 C5        -272.6053  -189.7946   400.9901 C5            1 RES     
   12842 C5        -273.8022  -189.0226   401.6261 C5            1 RES     
   12843 C5        -274.0329  -189.4109   403.1157 C5            1 RES     
   12844 C5        -275.4815  -189.1570   403.5731 C5            1 RES     
   12845 C5        -275.8358  -189.9958   404.8198 C5            1 RES     
   12846 C5        -277.3495  -189.9598   405.0972 C5            1 RES     
   12847 C5        -277.8042  -191.0042   406.1327 C5            1 RES     
   12848 C5        -277.2499  -190.7650   407.5327 C5            1 RES     
   12849 C5        -273.5595  -187.4966   401.3869 C5            1 RES     
   12850 C0        -274.6037  -186.3281   401.5659 C0            1 RES     
   12851 C5        -273.7291  -185.0002   401.5948 C5            1 RES     
   12852 C5        -273.5123  -184.3904   403.0201 C5            1 RES     
   12853 C5        -274.6690  -183.4431   403.4804 C5            1 RES     
   12854 C5        -274.6998  -182.0512   402.8065 C5            1 RES     
   12855 C5        -275.9473  -181.2127   403.1394 C5            1 RES     
   12856 C5        -276.0155  -180.6693   404.5794 C5            1 RES     
   12857 C5        -274.8829  -179.6931   404.9646 C5            1 RES     
   12858 C5        -274.8278  -178.4417   404.0821 C5            1 RES     
   12859 C5        -272.0938  -183.7619   403.2254 C5            1 RES     
   12860 C5        -271.5403  -182.8491   402.1007 C5            1 RES     
   12861 C5        -270.2393  -182.1152   402.4972 C5            1 RES     
   12862 C5        -269.0726  -183.0518   402.8643 C5            1 RES     
   12863 C5        -267.7817  -182.2997   403.2462 C5            1 RES     
   12864 C5        -267.1466  -181.5354   402.0682 C5            1 RES     
   12865 C5        -265.8590  -180.7831   402.4500 C5            1 RES     
   12866 C5        -264.7187  -181.7004   402.8944 C5            1 RES     
   12867 H6        -274.1119  -194.8914   395.7698 H6            1 RES     
   12868 H6        -275.3732  -195.2380   394.5432 H6            1 RES     
   12869 H6        -275.7589  -195.4398   396.2934 H6            1 RES     
   12870 H6        -275.1103  -192.7752   394.8547 H6            1 RES     
   12871 H6        -276.7506  -193.3581   395.3121 H6            1 RES     
   12872 H6        -275.9764  -191.6938   396.9211 H6            1 RES     
   12873 H6        -276.1758  -193.2991   397.7097 H6            1 RES     
   12874 H6        -273.4668  -192.0809   396.8029 H6            1 RES     
   12875 H6        -273.7132  -193.6622   397.6466 H6            1 RES     
   12876 H6        -274.4077  -190.8673   398.7656 H6            1 RES     
   12877 H6        -274.7858  -192.4605   399.5512 H6            1 RES     
   12878 H6        -272.4786  -193.0762   399.6940 H6            1 RES     
   12879 H6        -271.9062  -191.5516   398.9346 H6            1 RES     
   12880 H6        -273.5751  -191.7509   401.5342 H6            1 RES     
   12881 H6        -271.7983  -191.7225   401.4936 H6            1 RES     
   12882 H6        -272.4933  -189.4614   399.9339 H6            1 RES     
   12883 H6        -271.6649  -189.4970   401.5028 H6            1 RES     
   12884 H6        -274.6303  -189.3950   401.0657 H6            1 RES     
   12885 H6        -273.9007  -190.5035   403.1950 H6            1 RES     
   12886 H6        -273.2792  -188.9648   403.8000 H6            1 RES     
   12887 H6        -275.6770  -188.0742   403.7229 H6            1 RES     
   12888 H6        -276.1486  -189.5275   402.7669 H6            1 RES     
   12889 H6        -275.2495  -189.6591   405.7015 H6            1 RES     
   12890 H6        -275.5741  -191.0560   404.6060 H6            1 RES     
   12891 H6        -277.6623  -188.9384   405.4010 H6            1 RES     
   12892 H6        -277.8809  -190.2188   404.1539 H6            1 RES     
   12893 H6        -277.5096  -192.0212   405.7899 H6            1 RES     
   12894 H6        -278.9140  -190.9753   406.1913 H6            1 RES     
   12895 H6        -277.5672  -189.7680   407.9035 H6            1 RES     
   12896 H6        -276.1431  -190.8332   407.5400 H6            1 RES     
   12897 H6        -277.6494  -191.5430   408.2185 H6            1 RES     
   12898 H6        -273.2061  -187.3713   400.3392 H6            1 RES     
   12899 H6        -272.6914  -187.2760   402.0512 H6            1 RES     
   12900 H6        -272.7305  -185.2419   401.1739 H6            1 RES     
   12901 H6        -274.0552  -184.2241   400.8887 H6            1 RES     
   12902 H6        -273.5324  -185.2453   403.7347 H6            1 RES     
   12903 H6        -275.6321  -183.9695   403.3043 H6            1 RES     
   12904 H6        -274.5756  -183.2749   404.5747 H6            1 RES     
   12905 H6        -273.8090  -181.4596   403.0800 H6            1 RES     
   12906 H6        -274.6851  -182.1873   401.7152 H6            1 RES     
   12907 H6        -275.9875  -180.3500   402.4416 H6            1 RES     
   12908 H6        -276.8523  -181.8218   402.9418 H6            1 RES     
   12909 H6        -276.0210  -181.5173   405.2951 H6            1 RES     
   12910 H6        -276.9821  -180.1304   404.6920 H6            1 RES     
   12911 H6        -273.8985  -180.2035   404.9387 H6            1 RES     
   12912 H6        -275.0599  -179.3637   406.0112 H6            1 RES     
   12913 H6        -275.7988  -177.9027   404.1094 H6            1 RES     
   12914 H6        -274.0350  -177.7594   404.4552 H6            1 RES     
   12915 H6        -274.5792  -178.6999   403.0324 H6            1 RES     
   12916 H6        -271.3746  -184.6040   403.3101 H6            1 RES     
   12917 H6        -272.0912  -183.2276   404.2005 H6            1 RES     
   12918 H6        -272.2537  -182.0627   401.8155 H6            1 RES     
   12919 H6        -271.3530  -183.4488   401.1876 H6            1 RES     
   12920 H6        -269.9517  -181.4863   401.6296 H6            1 RES     
   12921 H6        -270.4497  -181.4423   403.3575 H6            1 RES     
   12922 H6        -268.8608  -183.7480   402.0242 H6            1 RES     
   12923 H6        -269.3673  -183.6507   403.7512 H6            1 RES     
   12924 H6        -267.9934  -181.5996   404.0842 H6            1 RES     
   12925 H6        -267.0598  -183.0623   403.6048 H6            1 RES     
   12926 H6        -267.8602  -180.7734   401.6948 H6            1 RES     
   12927 H6        -266.9257  -182.2439   401.2401 H6            1 RES     
   12928 H6        -265.5127  -180.2221   401.5546 H6            1 RES     
   12929 H6        -266.0764  -180.0477   403.2546 H6            1 RES     
   12930 H6        -264.9761  -182.2399   403.8279 H6            1 RES     
   12931 H6        -263.8139  -181.0887   403.0965 H6            1 RES     
   12932 H6        -264.4792  -182.4334   402.0954 H6            1 RES     
   12933 C0        -278.3686  -198.2761   398.2119 C0            1 RES     
   12934 C0        -279.7114  -199.0063   398.2557 C0            1 RES     
   12935 C0        -280.6200  -198.3282   398.9973 C0            1 RES     
   12936 S1        -282.1277  -199.0545   399.0267 S1            1 RES     
   12937 C0        -281.6162  -200.3331   398.0239 C0            1 RES     
   12938 C0        -280.2783  -200.1247   397.6479 C0            1 RES     
   12939 C0        -280.0652  -197.0836   399.4045 C0            1 RES     
   12940 C0        -278.8444  -197.0013   398.9255 C0            1 RES     
   12941 C0        -278.3070  -195.6603   399.0619 C0            1 RES     
   12942 C0        -279.2231  -194.8296   399.6891 C0            1 RES     
   12943 S1        -280.7674  -195.6325   400.1653 S1            1 RES     
   12944 H2        -279.7877  -200.7386   396.9230 H2            1 RES     
   12945 H2        -277.3970  -195.3021   398.6122 H2            1 RES     
   12946 N3        -282.5218  -203.7500   396.7225 N3            1 RES     
   12947 C0        -281.8070  -202.6636   397.1323 C0            1 RES     
   12948 C0        -282.4423  -201.4855   397.5741 C0            1 RES     
   12949 C0        -283.8470  -201.4870   397.5846 C0            1 RES     
   12950 N3        -284.6150  -200.4357   397.9768 N3            1 RES     
   12951 S1        -286.1495  -201.0065   397.7434 S1            1 RES     
   12952 N3        -285.9203  -202.5370   397.1662 N3            1 RES     
   12953 C0        -284.5658  -202.6296   397.1420 C0            1 RES     
   12954 C0        -283.8828  -203.7603   396.7133 C0            1 RES     
   12955 H4        -280.7336  -202.7323   397.1439 H4            1 RES     
   12956 C5        -281.3918  -204.8180   391.4671 C5            1 RES     
   12957 C5        -281.3497  -203.3688   391.9545 C5            1 RES     
   12958 C5        -280.8255  -203.2145   393.3932 C5            1 RES     
   12959 C5        -279.3747  -203.6965   393.5906 C5            1 RES     
   12960 C5        -278.9209  -203.4545   395.0407 C5            1 RES     
   12961 C5        -277.5669  -204.1059   395.3560 C5            1 RES     
   12962 C5        -277.1560  -203.9300   396.8374 C5            1 RES     
   12963 C5        -276.5423  -202.5405   397.1948 C5            1 RES     
   12964 C5        -277.3134  -201.6844   398.2463 C5            1 RES     
   12965 C5        -277.4487  -202.4103   399.6166 C5            1 RES     
   12966 C5        -278.6515  -201.9049   400.4349 C5            1 RES     
   12967 C5        -279.0856  -202.9366   401.4980 C5            1 RES     
   12968 C5        -280.4469  -202.5593   402.1098 C5            1 RES     
   12969 C5        -281.0725  -203.6889   402.9478 C5            1 RES     
   12970 C5        -280.2798  -204.0359   404.2031 C5            1 RES     
   12971 C5        -276.6141  -200.2881   398.3218 C5            1 RES     
   12972 C0        -277.1752  -198.9788   398.9992 C0            1 RES     
   12973 C5        -275.9146  -198.0196   399.1397 C5            1 RES     
   12974 C5        -275.3101  -197.9404   400.5815 C5            1 RES     
   12975 C5        -276.0102  -196.8840   401.4987 C5            1 RES     
   12976 C5        -275.6714  -195.4060   401.1932 C5            1 RES     
   12977 C5        -276.5101  -194.3863   401.9850 C5            1 RES     
   12978 C5        -276.1915  -194.2918   403.4893 C5            1 RES     
   12979 C5        -274.7570  -193.8308   403.8265 C5            1 RES     
   12980 C5        -274.4140  -192.4444   403.2717 C5            1 RES     
   12981 C5        -273.7495  -197.8249   400.6029 C5            1 RES     
   12982 C5        -273.0879  -196.8171   399.6276 C5            1 RES     
   12983 C5        -271.5751  -196.6282   399.8809 C5            1 RES     
   12984 C5        -270.7461  -197.9198   399.7466 C5            1 RES     
   12985 C5        -269.2387  -197.7071   399.9927 C5            1 RES     
   12986 C5        -268.5578  -196.8425   398.9139 C5            1 RES     
   12987 C5        -267.0535  -196.6287   399.1607 C5            1 RES     
   12988 C5        -266.2319  -197.9177   399.1099 C5            1 RES     
   12989 H6        -280.3713  -205.2474   391.4060 H6            1 RES     
   12990 H6        -281.8348  -204.8506   390.4489 H6            1 RES     
   12991 H6        -282.0162  -205.4387   392.1442 H6            1 RES     
   12992 H6        -280.7285  -202.7647   391.2596 H6            1 RES     
   12993 H6        -282.3880  -202.9701   391.9256 H6            1 RES     
   12994 H6        -280.8878  -202.1376   393.6619 H6            1 RES     
   12995 H6        -281.4961  -203.7795   394.0778 H6            1 RES     
   12996 H6        -278.6918  -203.1625   392.8943 H6            1 RES     
   12997 H6        -279.3282  -204.7853   393.3786 H6            1 RES     
   12998 H6        -278.8915  -202.3630   395.2462 H6            1 RES     
   12999 H6        -279.6629  -203.9428   395.7024 H6            1 RES     
   13000 H6        -277.6950  -205.1961   395.1738 H6            1 RES     
   13001 H6        -276.7615  -203.7413   394.6827 H6            1 RES     
   13002 H6        -278.0200  -204.2149   397.4710 H6            1 RES     
   13003 H6        -276.3588  -204.6767   397.0391 H6            1 RES     
   13004 H6        -276.4753  -201.9583   396.2483 H6            1 RES     
   13005 H6        -275.4944  -202.6829   397.5375 H6            1 RES     
   13006 H6        -278.2881  -201.6280   397.8158 H6            1 RES     
   13007 H6        -277.6768  -203.4693   399.4067 H6            1 RES     
   13008 H6        -276.5015  -202.4149   400.1983 H6            1 RES     
   13009 H6        -278.4536  -200.9040   400.8735 H6            1 RES     
   13010 H6        -279.5099  -201.8199   399.7360 H6            1 RES     
   13011 H6        -278.3033  -203.0518   402.2786 H6            1 RES     
   13012 H6        -279.2234  -203.9167   400.9893 H6            1 RES     
   13013 H6        -280.3571  -201.6267   402.7061 H6            1 RES     
   13014 H6        -281.1608  -202.3705   401.2768 H6            1 RES     
   13015 H6        -281.1833  -204.6010   402.3196 H6            1 RES     
   13016 H6        -282.0899  -203.3676   403.2599 H6            1 RES     
   13017 H6        -280.1928  -203.1440   404.8581 H6            1 RES     
   13018 H6        -279.2689  -204.4116   403.9447 H6            1 RES     
   13019 H6        -280.8144  -204.8353   404.7600 H6            1 RES     
   13020 H6        -276.3897  -199.9663   397.2805 H6            1 RES     
   13021 H6        -275.6380  -200.5249   398.8062 H6            1 RES     
   13022 H6        -275.1223  -198.3981   398.4602 H6            1 RES     
   13023 H6        -276.0602  -197.0120   398.7265 H6            1 RES     
   13024 H6        -275.5124  -198.9251   401.0623 H6            1 RES     
   13025 H6        -277.1080  -197.0428   401.4261 H6            1 RES     
   13026 H6        -275.7138  -197.0767   402.5520 H6            1 RES     
   13027 H6        -274.6058  -195.1958   401.3894 H6            1 RES     
   13028 H6        -275.8559  -195.2152   400.1259 H6            1 RES     
   13029 H6        -276.3592  -193.3824   401.5355 H6            1 RES     
   13030 H6        -277.5843  -194.6307   401.8597 H6            1 RES     
   13031 H6        -276.3777  -195.2748   403.9694 H6            1 RES     
   13032 H6        -276.8985  -193.5605   403.9394 H6            1 RES     
   13033 H6        -274.0117  -194.5665   403.4611 H6            1 RES     
   13034 H6        -274.6660  -193.7863   404.9333 H6            1 RES     
   13035 H6        -275.1371  -191.6868   403.6421 H6            1 RES     
   13036 H6        -273.3956  -192.1529   403.6053 H6            1 RES     
   13037 H6        -274.4150  -192.4431   402.1624 H6            1 RES     
   13038 H6        -273.3463  -198.8215   400.3243 H6            1 RES     
   13039 H6        -273.4330  -197.6226   401.6495 H6            1 RES     
   13040 H6        -273.5323  -195.8144   399.7021 H6            1 RES     
   13041 H6        -273.2402  -197.1507   398.5816 H6            1 RES     
   13042 H6        -271.2197  -195.8805   399.1423 H6            1 RES     
   13043 H6        -271.4274  -196.2058   400.8993 H6            1 RES     
   13044 H6        -270.8974  -198.3698   398.7417 H6            1 RES     
   13045 H6        -271.0955  -198.6438   400.5121 H6            1 RES     
   13046 H6        -269.0865  -197.2529   400.9965 H6            1 RES     
   13047 H6        -268.7682  -198.7120   399.9911 H6            1 RES     
   13048 H6        -269.0229  -195.8361   398.8994 H6            1 RES     
   13049 H6        -268.7030  -197.3097   397.9154 H6            1 RES     
   13050 H6        -266.6698  -195.9513   398.3668 H6            1 RES     
   13051 H6        -266.8994  -196.1309   400.1425 H6            1 RES     
   13052 H6        -266.5202  -198.6116   399.9249 H6            1 RES     
   13053 H6        -265.1565  -197.6722   399.2401 H6            1 RES     
   13054 H6        -266.3638  -198.4212   398.1290 H6            1 RES     
   13055 C0        -285.1231  -207.8585   393.8843 C0            1 RES     
   13056 C0        -286.6118  -208.1611   394.0578 C0            1 RES     
   13057 C0        -287.1304  -207.5029   395.1222 C0            1 RES     
   13058 S1        -288.7738  -207.7513   395.3201 S1            1 RES     
   13059 C0        -288.8616  -208.7703   393.9577 C0            1 RES     
   13060 C0        -287.5971  -208.8459   393.3493 C0            1 RES     
   13061 C0        -286.1427  -206.6406   395.6731 C0            1 RES     
   13062 C0        -285.0438  -206.7684   394.9643 C0            1 RES     
   13063 C0        -284.0782  -205.7339   395.2854 C0            1 RES     
   13064 C0        -284.5692  -204.9006   396.2791 C0            1 RES     
   13065 S1        -286.2095  -205.3395   396.8899 S1            1 RES     
   13066 H2        -287.4448  -209.3329   392.4097 H2            1 RES     
   13067 H2        -283.1735  -205.5308   394.7387 H2            1 RES     
   13068 N3        -291.0229  -211.2577   392.1327 N3            1 RES     
   13069 C0        -289.9381  -210.5856   392.6130 C0            1 RES     
   13070 C0        -290.0778  -209.4596   393.4492 C0            1 RES     
   13071 C0        -291.3871  -209.0690   393.7752 C0            1 RES     
   13072 N3        -291.6997  -208.0070   394.5647 N3            1 RES     
   13073 S1        -293.3532  -208.0289   394.5563 S1            1 RES     
   13074 N3        -293.7283  -209.3232   393.6013 N3            1 RES     
   13075 C0        -292.4990  -209.7817   393.2516 C0            1 RES     
   13076 C0        -292.2972  -210.8817   392.4282 C0            1 RES     
   13077 H4        -288.9579  -210.9537   392.3661 H4            1 RES     
   13078 C5        -291.0601  -211.0136   386.6577 C5            1 RES     
   13079 C5        -290.4715  -209.8436   387.4476 C5            1 RES     
   13080 C5        -289.7296  -210.2710   388.7265 C5            1 RES     
   13081 C5        -288.5085  -211.1772   388.4739 C5            1 RES     
   13082 C5        -287.8016  -211.5080   389.7997 C5            1 RES     
   13083 C5        -286.7105  -212.5763   389.6409 C5            1 RES     
   13084 C5        -286.0611  -212.9646   390.9906 C5            1 RES     
   13085 C5        -284.9773  -211.9719   391.5150 C5            1 RES     
   13086 C5        -285.2651  -211.2803   392.8832 C5            1 RES     
   13087 C5        -285.4401  -212.3067   394.0403 C5            1 RES     
   13088 C5        -286.2797  -211.7460   395.2033 C5            1 RES     
   13089 C5        -286.8780  -212.8780   396.0657 C5            1 RES     
   13090 C5        -287.9368  -212.3294   397.0392 C5            1 RES     
   13091 C5        -288.7778  -213.4311   397.7089 C5            1 RES     
   13092 C5        -287.9775  -214.3384   398.6367 C5            1 RES     
   13093 C5        -284.1387  -210.2229   393.1232 C5            1 RES     
   13094 C0        -284.1326  -209.0667   394.1961 C0            1 RES     
   13095 C5        -282.6187  -208.5856   394.2691 C5            1 RES     
   13096 C5        -281.8263  -209.1051   395.5152 C5            1 RES     
   13097 C5        -282.0002  -208.2112   396.7871 C5            1 RES     
   13098 C5        -281.2364  -206.8662   396.7671 C5            1 RES     
   13099 C5        -281.5694  -205.9301   397.9431 C5            1 RES     
   13100 C5        -281.0299  -206.3736   399.3163 C5            1 RES     
   13101 C5        -279.4914  -206.4543   399.4198 C5            1 RES     
   13102 C5        -278.7891  -205.1213   399.1415 C5            1 RES     
   13103 C5        -280.3292  -209.4447   395.2109 C5            1 RES     
   13104 C5        -279.5143  -208.4242   394.3747 C5            1 RES     
   13105 C5        -278.0049  -208.7511   394.3175 C5            1 RES     
   13106 C5        -277.6791  -210.1253   393.7022 C5            1 RES     
   13107 C5        -276.1678  -210.4268   393.6450 C5            1 RES     
   13108 C5        -275.3970  -209.5124   392.6732 C5            1 RES     
   13109 C5        -273.8881  -209.8123   392.6177 C5            1 RES     
   13110 C5        -273.5566  -211.2065   392.0835 C5            1 RES     
   13111 H6        -290.2593  -211.6752   386.2697 H6            1 RES     
   13112 H6        -291.6270  -210.6209   385.7868 H6            1 RES     
   13113 H6        -291.7537  -211.6034   387.2939 H6            1 RES     
   13114 H6        -289.7890  -209.2628   386.7915 H6            1 RES     
   13115 H6        -291.3118  -209.1788   387.7474 H6            1 RES     
   13116 H6        -289.3926  -209.3478   389.2462 H6            1 RES     
   13117 H6        -290.4467  -210.7991   389.3931 H6            1 RES     
   13118 H6        -287.7919  -210.6774   387.7860 H6            1 RES     
   13119 H6        -288.8563  -212.1234   388.0085 H6            1 RES     
   13120 H6        -287.3831  -210.5789   390.2424 H6            1 RES     
   13121 H6        -288.5630  -211.9392   390.4787 H6            1 RES     
   13122 H6        -287.2174  -213.4834   389.2428 H6            1 RES     
   13123 H6        -285.9326  -212.2726   388.9077 H6            1 RES     
   13124 H6        -286.8728  -213.1675   391.7180 H6            1 RES     
   13125 H6        -285.5370  -213.9303   390.8274 H6            1 RES     
   13126 H6        -284.8543  -211.1817   390.7405 H6            1 RES     
   13127 H6        -283.9991  -212.4969   391.5697 H6            1 RES     
   13128 H6        -286.2159  -210.8287   392.7087 H6            1 RES     
   13129 H6        -286.0339  -213.1490   393.6457 H6            1 RES     
   13130 H6        -284.4765  -212.7474   394.3761 H6            1 RES     
   13131 H6        -285.7013  -211.0153   395.8074 H6            1 RES     
   13132 H6        -287.1502  -211.2225   394.7555 H6            1 RES     
   13133 H6        -286.0770  -213.4316   396.6009 H6            1 RES     
   13134 H6        -287.4031  -213.5861   395.3866 H6            1 RES     
   13135 H6        -287.4599  -211.6768   397.8008 H6            1 RES     
   13136 H6        -288.6569  -211.7123   396.4562 H6            1 RES     
   13137 H6        -289.2720  -214.0497   396.9267 H6            1 RES     
   13138 H6        -289.5765  -212.9427   398.3084 H6            1 RES     
   13139 H6        -287.5085  -213.7395   399.4450 H6            1 RES     
   13140 H6        -287.1954  -214.8904   398.0768 H6            1 RES     
   13141 H6        -288.6635  -215.0817   399.0972 H6            1 RES     
   13142 H6        -283.9686  -209.6871   392.1628 H6            1 RES     
   13143 H6        -283.2389  -210.8555   393.3061 H6            1 RES     
   13144 H6        -282.1005  -208.9555   393.3594 H6            1 RES     
   13145 H6        -282.4780  -207.5028   394.1463 H6            1 RES     
   13146 H6        -282.2744  -210.0889   395.7855 H6            1 RES     
   13147 H6        -283.0871  -208.0264   396.9287 H6            1 RES     
   13148 H6        -281.6400  -208.7789   397.6717 H6            1 RES     
   13149 H6        -280.1451  -207.0312   396.7617 H6            1 RES     
   13150 H6        -281.4949  -206.3276   395.8437 H6            1 RES     
   13151 H6        -281.1584  -204.9235   397.7184 H6            1 RES     
   13152 H6        -282.6700  -205.8148   398.0095 H6            1 RES     
   13153 H6        -281.4625  -207.3601   399.5829 H6            1 RES     
   13154 H6        -281.3836  -205.6381   400.0722 H6            1 RES     
   13155 H6        -279.0916  -207.2293   398.7344 H6            1 RES     
   13156 H6        -279.2366  -206.7631   400.4566 H6            1 RES     
   13157 H6        -279.1602  -204.3340   399.8317 H6            1 RES     
   13158 H6        -277.6956  -205.2389   399.2958 H6            1 RES     
   13159 H6        -278.9451  -204.7952   398.0928 H6            1 RES     
   13160 H6        -280.3229  -210.3874   394.6237 H6            1 RES     
   13161 H6        -279.8201  -209.6550   396.1768 H6            1 RES     
   13162 H6        -279.5856  -207.4046   394.7795 H6            1 RES     
   13163 H6        -279.9137  -208.3802   393.3417 H6            1 RES     
   13164 H6        -277.5287  -207.9515   393.7135 H6            1 RES     
   13165 H6        -277.5842  -208.7046   395.3462 H6            1 RES     
   13166 H6        -278.1105  -210.2000   392.6806 H6            1 RES     
   13167 H6        -278.1380  -210.9128   394.3358 H6            1 RES     
   13168 H6        -275.7343  -210.3484   394.6663 H6            1 RES     
   13169 H6        -276.0627  -211.4772   393.3029 H6            1 RES     
   13170 H6        -275.4988  -208.4576   392.9993 H6            1 RES     
   13171 H6        -275.8274  -209.6065   391.6522 H6            1 RES     
   13172 H6        -273.4167  -209.0687   391.9385 H6            1 RES     
   13173 H6        -273.4414  -209.6879   393.6279 H6            1 RES     
   13174 H6        -273.9416  -211.9981   392.7573 H6            1 RES     
   13175 H6        -272.4537  -211.3227   392.0217 H6            1 RES     
   13176 H6        -273.9843  -211.3426   391.0678 H6            1 RES     
   13177 C0        -295.2111  -213.4506   389.0745 C0            1 RES     
   13178 C0        -296.6759  -213.3593   389.5033 C0            1 RES     
   13179 C0        -296.7919  -212.9234   390.7807 C0            1 RES     
   13180 S1        -298.3797  -212.7462   391.2800 S1            1 RES     
   13181 C0        -298.9907  -213.2541   389.7732 C0            1 RES     
   13182 C0        -297.9216  -213.5008   388.8951 C0            1 RES     
   13183 C0        -295.5071  -212.5742   391.2807 C0            1 RES     
   13184 C0        -294.6238  -212.7926   390.3327 C0            1 RES     
   13185 C0        -293.3347  -212.2126   390.6606 C0            1 RES     
   13186 C0        -293.3768  -211.6038   391.9057 C0            1 RES     
   13187 S1        -294.9670  -211.7224   392.7505 S1            1 RES     
   13188 H2        -298.0729  -213.7137   387.8584 H2            1 RES     
   13189 H2        -292.5000  -212.1214   389.9871 H2            1 RES     
   13190 N3        -302.0884  -214.3857   387.9528 N3            1 RES     
   13191 C0        -300.7860  -214.2171   388.3197 C0            1 RES     
   13192 C0        -300.4253  -213.3934   389.4051 C0            1 RES     
   13193 C0        -301.4715  -212.7636   390.0996 C0            1 RES     
   13194 N3        -301.2998  -211.9361   391.1649 N3            1 RES     
   13195 S1        -302.8508  -211.4887   391.5243 S1            1 RES     
   13196 N3        -303.7641  -212.2867   390.4032 N3            1 RES     
   13197 C0        -302.8185  -212.9491   389.6884 C0            1 RES     
   13198 C0        -303.1109  -213.7702   388.6072 C0            1 RES     
   13199 H4        -300.0285  -214.7569   387.7794 H4            1 RES     
   13200 C5        -302.8097  -212.5500   382.8394 C5            1 RES     
   13201 C5        -301.7616  -211.8773   383.7273 C5            1 RES     
   13202 C5        -301.0320  -212.8508   384.6700 C5            1 RES     
   13203 C5        -300.2291  -213.9485   383.9444 C5            1 RES     
   13204 C5        -299.4936  -214.8375   384.9620 C5            1 RES     
   13205 C5        -298.8526  -216.0743   384.3164 C5            1 RES     
   13206 C5        -298.1865  -217.0067   385.3561 C5            1 RES     
   13207 C5        -296.7725  -216.5577   385.8398 C5            1 RES     
   13208 C5        -296.6196  -216.2450   387.3604 C5            1 RES     
   13209 C5        -296.9612  -217.4725   388.2546 C5            1 RES     
   13210 C5        -297.3952  -217.0643   389.6747 C5            1 RES     
   13211 C5        -298.2082  -218.1830   390.3609 C5            1 RES     
   13212 C5        -298.8773  -217.6687   391.6484 C5            1 RES     
   13213 C5        -299.9336  -218.6351   392.2139 C5            1 RES     
   13214 C5        -299.3581  -219.9609   392.6993 C5            1 RES     
   13215 C5        -295.1842  -215.6656   387.5806 C5            1 RES     
   13216 C0        -294.6444  -214.9246   388.8642 C0            1 RES     
   13217 C5        -293.0622  -214.9320   388.7045 C5            1 RES     
   13218 C5        -292.3207  -215.9942   389.5833 C5            1 RES     
   13219 C5        -292.0079  -215.5005   391.0344 C5            1 RES     
   13220 C5        -290.8519  -214.4802   391.1575 C5            1 RES     
   13221 C5        -290.6869  -213.8752   392.5635 C5            1 RES     
   13222 C5        -290.1383  -214.8341   393.6373 C5            1 RES     
   13223 C5        -288.7155  -215.3707   393.3698 C5            1 RES     
   13224 C5        -287.6568  -214.2684   393.2597 C5            1 RES     
   13225 C5        -291.0795  -216.6365   388.8789 C5            1 RES     
   13226 C5        -290.0980  -215.6883   388.1427 C5            1 RES     
   13227 C5        -288.8064  -216.3948   387.6723 C5            1 RES     
   13228 C5        -289.0449  -217.5623   386.6959 C5            1 RES     
   13229 C5        -287.7432  -218.2460   386.2310 C5            1 RES     
   13230 C5        -286.8569  -217.3427   385.3517 C5            1 RES     
   13231 C5        -285.5567  -218.0248   384.8892 C5            1 RES     
   13232 C5        -285.7851  -219.2359   383.9837 C5            1 RES     
   13233 H6        -302.3366  -213.2663   382.1375 H6            1 RES     
   13234 H6        -303.3302  -211.7768   382.2351 H6            1 RES     
   13235 H6        -303.5632  -213.0802   383.4597 H6            1 RES     
   13236 H6        -301.0241  -211.3465   383.0886 H6            1 RES     
   13237 H6        -302.2828  -211.1212   384.3554 H6            1 RES     
   13238 H6        -300.3384  -212.2539   385.3013 H6            1 RES     
   13239 H6        -301.7828  -213.3269   385.3388 H6            1 RES     
   13240 H6        -299.4912  -213.4920   383.2490 H6            1 RES     
   13241 H6        -300.9328  -214.5793   383.3615 H6            1 RES     
   13242 H6        -298.7328  -214.2356   385.5035 H6            1 RES     
   13243 H6        -300.2518  -215.2163   385.6750 H6            1 RES     
   13244 H6        -299.6823  -216.6443   383.8422 H6            1 RES     
   13245 H6        -298.1290  -215.8009   383.5186 H6            1 RES     
   13246 H6        -298.9090  -217.1768   386.1797 H6            1 RES     
   13247 H6        -298.0410  -217.9889   384.8581 H6            1 RES     
   13248 H6        -296.5040  -215.6434   385.2642 H6            1 RES     
   13249 H6        -296.0265  -217.3286   385.5487 H6            1 RES     
   13250 H6        -297.3811  -215.5138   387.5150 H6            1 RES     
   13251 H6        -297.8500  -217.9599   387.8184 H6            1 RES     
   13252 H6        -296.1615  -218.2445   388.2522 H6            1 RES     
   13253 H6        -296.5285  -216.7358   390.2865 H6            1 RES     
   13254 H6        -298.0964  -216.2100   389.5695 H6            1 RES     
   13255 H6        -297.5697  -219.0708   390.5574 H6            1 RES     
   13256 H6        -299.0283  -218.4838   389.6715 H6            1 RES     
   13257 H6        -298.1091  -217.4293   392.4137 H6            1 RES     
   13258 H6        -299.4260  -216.7317   391.4032 H6            1 RES     
   13259 H6        -300.7095  -218.8327   391.4409 H6            1 RES     
   13260 H6        -300.4324  -218.1396   393.0750 H6            1 RES     
   13261 H6        -298.6085  -219.7819   393.4981 H6            1 RES     
   13262 H6        -298.8903  -220.5215   391.8647 H6            1 RES     
   13263 H6        -300.1801  -220.5821   393.1159 H6            1 RES     
   13264 H6        -294.9824  -214.9427   386.7590 H6            1 RES     
   13265 H6        -294.5291  -216.5504   387.4032 H6            1 RES     
   13266 H6        -292.8291  -215.1495   387.6409 H6            1 RES     
   13267 H6        -292.5888  -213.9460   388.8096 H6            1 RES     
   13268 H6        -293.0274  -216.8464   389.7102 H6            1 RES     
   13269 H6        -292.9406  -215.0674   391.4563 H6            1 RES     
   13270 H6        -291.7363  -216.3795   391.6574 H6            1 RES     
   13271 H6        -289.8893  -214.9363   390.8680 H6            1 RES     
   13272 H6        -291.0437  -213.6451   390.4681 H6            1 RES     
   13273 H6        -290.0009  -213.0050   392.4935 H6            1 RES     
   13274 H6        -291.6661  -213.4797   392.9012 H6            1 RES     
   13275 H6        -290.8319  -215.6920   393.7565 H6            1 RES     
   13276 H6        -290.1181  -214.2836   394.6037 H6            1 RES     
   13277 H6        -288.6958  -215.9909   392.4504 H6            1 RES     
   13278 H6        -288.4348  -216.0280   394.2210 H6            1 RES     
   13279 H6        -287.6450  -213.6465   394.1800 H6            1 RES     
   13280 H6        -286.6542  -214.7285   393.1318 H6            1 RES     
   13281 H6        -287.8412  -213.6197   392.3790 H6            1 RES     
   13282 H6        -291.4689  -217.3280   388.1020 H6            1 RES     
   13283 H6        -290.5390  -217.2545   389.6288 H6            1 RES     
   13284 H6        -289.7693  -214.8548   388.7798 H6            1 RES     
   13285 H6        -290.6008  -215.2335   387.2659 H6            1 RES     
   13286 H6        -288.1816  -215.6211   387.1805 H6            1 RES     
   13287 H6        -288.2543  -216.7716   388.5615 H6            1 RES     
   13288 H6        -289.6153  -217.2103   385.8093 H6            1 RES     
   13289 H6        -289.6455  -218.3383   387.2147 H6            1 RES     
   13290 H6        -287.1696  -218.5951   387.1177 H6            1 RES     
   13291 H6        -288.0417  -219.1354   385.6384 H6            1 RES     
   13292 H6        -286.5561  -216.4454   385.9294 H6            1 RES     
   13293 H6        -287.4328  -217.0088   384.4610 H6            1 RES     
   13294 H6        -284.9653  -217.2790   384.3142 H6            1 RES     
   13295 H6        -284.9571  -218.3323   385.7732 H6            1 RES     
   13296 H6        -286.3125  -220.0484   384.5229 H6            1 RES     
   13297 H6        -284.8035  -219.6341   383.6497 H6            1 RES     
   13298 H6        -286.3716  -218.9428   383.0875 H6            1 RES     
   13299 C0        -307.1518  -214.3173   385.4914 C0            1 RES     
   13300 C0        -308.4279  -213.9474   386.2483 C0            1 RES     
   13301 C0        -308.2123  -213.8902   387.5845 C0            1 RES     
   13302 S1        -309.5646  -213.4279   388.4558 S1            1 RES     
   13303 C0        -310.5145  -213.2794   387.0496 C0            1 RES     
   13304 C0        -309.7222  -213.5485   385.9206 C0            1 RES     
   13305 C0        -306.8278  -214.0786   387.8496 C0            1 RES     
   13306 C0        -306.2092  -214.2493   386.7029 C0            1 RES     
   13307 C0        -304.7682  -214.1776   386.8581 C0            1 RES     
   13308 C0        -304.4309  -213.9737   388.1876 C0            1 RES     
   13309 S1        -305.8352  -213.8821   389.3171 S1            1 RES     
   13310 H2        -310.0793  -213.3972   384.9243 H2            1 RES     
   13311 H2        -304.0538  -214.1319   386.0544 H2            1 RES     
   13312 N3        -314.0349  -212.9098   385.7612 N3            1 RES     
   13313 C0        -312.7126  -213.2293   385.8543 C0            1 RES     
   13314 C0        -311.9506  -212.8955   386.9921 C0            1 RES     
   13315 C0        -312.6200  -212.2290   388.0317 C0            1 RES     
   13316 N3        -312.0359  -211.8327   389.1940 N3            1 RES     
   13317 S1        -313.2838  -211.0928   389.9878 S1            1 RES     
   13318 N3        -314.5579  -211.2373   388.9467 N3            1 RES     
   13319 C0        -313.9959  -211.8994   387.9029 C0            1 RES     
   13320 C0        -314.6927  -212.2512   386.7543 C0            1 RES     
   13321 H4        -312.2608  -213.7776   385.0465 H4            1 RES     
   13322 C5        -314.8154  -209.5329   381.5157 C5            1 RES     
   13323 C5        -313.4900  -209.4727   382.2766 C5            1 RES     
   13324 C5        -313.0003  -210.8434   382.7766 C5            1 RES     
   13325 C5        -312.7174  -211.8600   381.6529 C5            1 RES     
   13326 C5        -312.1837  -213.1772   382.2421 C5            1 RES     
   13327 C5        -312.0868  -214.2988   381.1983 C5            1 RES     
   13328 C5        -311.6291  -215.6426   381.8139 C5            1 RES     
   13329 C5        -310.0932  -215.7713   382.0578 C5            1 RES     
   13330 C5        -309.6335  -215.9736   383.5346 C5            1 RES     
   13331 C5        -310.2343  -217.2610   384.1707 C5            1 RES     
   13332 C5        -310.3045  -217.1815   385.7072 C5            1 RES     
   13333 C5        -311.3380  -218.1761   386.2781 C5            1 RES     
   13334 C5        -311.6110  -217.8947   387.7667 C5            1 RES     
   13335 C5        -312.8377  -218.6464   388.3139 C5            1 RES     
   13336 C5        -312.6729  -220.1620   388.3338 C5            1 RES     
   13337 C5        -308.0714  -215.9121   383.5550 C5            1 RES     
   13338 C0        -307.1419  -215.7622   384.8205 C0            1 RES     
   13339 C5        -305.6909  -216.1671   384.3113 C5            1 RES     
   13340 C5        -305.2285  -217.6036   384.7275 C5            1 RES     
   13341 C5        -304.5694  -217.6651   386.1449 C5            1 RES     
   13342 C5        -303.1351  -217.0936   386.2393 C5            1 RES     
   13343 C5        -302.5833  -216.9985   387.6733 C5            1 RES     
   13344 C5        -302.2392  -218.3434   388.3415 C5            1 RES     
   13345 C5        -301.1275  -219.1556   387.6426 C5            1 RES     
   13346 C5        -299.7896  -218.4137   387.5574 C5            1 RES     
   13347 C5        -304.3826  -218.3335   383.6316 C5            1 RES     
   13348 C5        -303.2555  -217.5275   382.9356 C5            1 RES     
   13349 C5        -302.3511  -218.3988   382.0347 C5            1 RES     
   13350 C5        -303.0980  -219.1130   380.8922 C5            1 RES     
   13351 C5        -302.1758  -219.9679   379.9995 C5            1 RES     
   13352 C5        -301.1725  -219.1342   379.1791 C5            1 RES     
   13353 C5        -300.2509  -219.9878   378.2895 C5            1 RES     
   13354 C5        -300.9929  -220.7656   377.2015 C5            1 RES     
   13355 H6        -314.7102  -210.1152   380.5780 H6            1 RES     
   13356 H6        -315.1291  -208.5030   381.2419 H6            1 RES     
   13357 H6        -315.6074  -209.9871   382.1483 H6            1 RES     
   13358 H6        -312.7154  -209.0080   381.6302 H6            1 RES     
   13359 H6        -313.6371  -208.8188   383.1647 H6            1 RES     
   13360 H6        -312.0667  -210.6776   383.3568 H6            1 RES     
   13361 H6        -313.7649  -211.2631   383.4671 H6            1 RES     
   13362 H6        -311.9751  -211.4468   380.9357 H6            1 RES     
   13363 H6        -313.6649  -212.0681   381.1128 H6            1 RES     
   13364 H6        -311.1983  -212.9995   382.7235 H6            1 RES     
   13365 H6        -312.9167  -213.5188   382.9990 H6            1 RES     
   13366 H6        -313.1164  -214.4477   380.8035 H6            1 RES     
   13367 H6        -311.4328  -214.0190   380.3445 H6            1 RES     
   13368 H6        -312.2440  -215.8359   382.7160 H6            1 RES     
   13369 H6        -311.8891  -216.4355   381.0807 H6            1 RES     
   13370 H6        -309.6200  -214.8428   381.6664 H6            1 RES     
   13371 H6        -309.6940  -216.6005   381.4343 H6            1 RES     
   13372 H6        -310.0796  -215.1364   384.0232 H6            1 RES     
   13373 H6        -311.2863  -217.3289   383.8446 H6            1 RES     
   13374 H6        -309.7449  -218.1907   383.8081 H6            1 RES     
   13375 H6        -309.3013  -217.3040   386.1673 H6            1 RES     
   13376 H6        -310.6898  -216.1727   385.9651 H6            1 RES     
   13377 H6        -311.0095  -219.2245   386.1128 H6            1 RES     
   13378 H6        -312.2995  -218.0186   385.7404 H6            1 RES     
   13379 H6        -310.7076  -218.1159   388.3735 H6            1 RES     
   13380 H6        -311.8462  -216.8122   387.8772 H6            1 RES     
   13381 H6        -313.7355  -218.3825   387.7113 H6            1 RES     
   13382 H6        -313.0179  -218.3052   389.3565 H6            1 RES     
   13383 H6        -311.8022  -220.4429   388.9623 H6            1 RES     
   13384 H6        -312.5396  -220.5616   387.3079 H6            1 RES     
   13385 H6        -313.5874  -220.6205   388.7679 H6            1 RES     
   13386 H6        -307.7584  -215.0677   382.9012 H6            1 RES     
   13387 H6        -307.7788  -216.8530   383.0330 H6            1 RES     
   13388 H6        -305.6947  -216.1203   383.2020 H6            1 RES     
   13389 H6        -304.9073  -215.4299   384.5344 H6            1 RES     
   13390 H6        -306.1528  -218.2210   384.8077 H6            1 RES     
   13391 H6        -305.2366  -217.1304   386.8553 H6            1 RES     
   13392 H6        -304.5204  -218.7271   386.4677 H6            1 RES     
   13393 H6        -302.4292  -217.6964   385.6421 H6            1 RES     
   13394 H6        -303.1335  -216.0747   385.8254 H6            1 RES     
   13395 H6        -301.6644  -216.3756   387.6558 H6            1 RES     
   13396 H6        -303.3181  -216.4605   388.3056 H6            1 RES     
   13397 H6        -303.1543  -218.9673   388.4101 H6            1 RES     
   13398 H6        -301.9022  -218.1287   389.3796 H6            1 RES     
   13399 H6        -301.4440  -219.4589   386.6237 H6            1 RES     
   13400 H6        -300.9646  -220.0843   388.2310 H6            1 RES     
   13401 H6        -299.4431  -218.1179   388.5705 H6            1 RES     
   13402 H6        -299.0250  -219.0787   387.1031 H6            1 RES     
   13403 H6        -299.8697  -217.5112   386.9175 H6            1 RES     
   13404 H6        -305.0843  -218.6287   382.8229 H6            1 RES     
   13405 H6        -303.9784  -219.2698   384.0748 H6            1 RES     
   13406 H6        -302.5830  -217.0446   383.6589 H6            1 RES     
   13407 H6        -303.6965  -216.7139   382.3257 H6            1 RES     
   13408 H6        -301.5804  -217.7234   381.6094 H6            1 RES     
   13409 H6        -301.8365  -219.1586   382.6634 H6            1 RES     
   13410 H6        -303.6375  -218.3714   380.2643 H6            1 RES     
   13411 H6        -303.8430  -219.8052   381.3370 H6            1 RES     
   13412 H6        -301.6322  -220.7077   380.6275 H6            1 RES     
   13413 H6        -302.8326  -220.5234   379.2985 H6            1 RES     
   13414 H6        -300.5131  -218.5678   379.8674 H6            1 RES     
   13415 H6        -301.7238  -218.4065   378.5443 H6            1 RES     
   13416 H6        -299.5323  -219.3043   377.7866 H6            1 RES     
   13417 H6        -299.6697  -220.6962   378.9187 H6            1 RES     
   13418 H6        -301.6789  -221.5176   377.6406 H6            1 RES     
   13419 H6        -300.2562  -221.3078   376.5714 H6            1 RES     
   13420 H6        -301.5684  -220.0705   376.5544 H6            1 RES     
   13421 C0        -319.0807  -210.7032   384.5896 C0            1 RES     
   13422 C0        -320.0421  -210.2278   385.6793 C0            1 RES     
   13423 C0        -319.6347  -210.6272   386.9080 C0            1 RES     
   13424 S1        -320.6206  -210.0794   388.1448 S1            1 RES     
   13425 C0        -321.6545  -209.2650   387.0633 C0            1 RES     
   13426 C0        -321.1630  -209.4034   385.7541 C0            1 RES     
   13427 C0        -318.3686  -211.2663   386.8029 C0            1 RES     
   13428 C0        -318.0089  -211.2606   385.5391 C0            1 RES     
   13429 C0        -316.6192  -211.6458   385.3780 C0            1 RES     
   13430 C0        -316.0504  -211.9432   386.6072 C0            1 RES     
   13431 S1        -317.1716  -211.7952   388.0133 S1            1 RES     
   13432 H2        -321.5857  -208.8731   384.9275 H2            1 RES     
   13433 H2        -316.0502  -211.5696   384.4675 H2            1 RES     
   13434 N3        -324.9965  -207.5603   386.7240 N3            1 RES     
   13435 C0        -323.8559  -208.2514   386.4396 C0            1 RES     
   13436 C0        -322.8748  -208.4935   387.4221 C0            1 RES     
   13437 C0        -323.1323  -208.0004   388.7120 C0            1 RES     
   13438 N3        -322.2929  -208.1425   389.7723 N3            1 RES     
   13439 S1        -323.1002  -207.3477   390.9770 S1            1 RES     
   13440 N3        -324.4826  -206.8168   390.2456 N3            1 RES     
   13441 C0        -324.3244  -207.2745   388.9770 C0            1 RES     
   13442 C0        -325.2522  -207.0641   387.9654 C0            1 RES     
   13443 H4        -323.7298  -208.6431   385.4457 H4            1 RES     
   13444 C5        -325.1990  -203.0122   383.6728 C5            1 RES     
   13445 C5        -323.8360  -203.5525   384.1079 C5            1 RES     
   13446 C5        -323.7640  -205.0892   384.1504 C5            1 RES     
   13447 C5        -323.9951  -205.7691   382.7865 C5            1 RES     
   13448 C5        -323.8517  -207.2955   382.9159 C5            1 RES     
   13449 C5        -324.2799  -208.0424   381.6448 C5            1 RES     
   13450 C5        -324.2127  -209.5794   381.8101 C5            1 RES     
   13451 C5        -322.7885  -210.2003   381.6648 C5            1 RES     
   13452 C5        -322.2198  -210.9465   382.9109 C5            1 RES     
   13453 C5        -323.1183  -212.1404   383.3472 C5            1 RES     
   13454 C5        -322.9420  -212.4975   384.8350 C5            1 RES     
   13455 C5        -324.1561  -213.2830   385.3755 C5            1 RES     
   13456 C5        -324.1087  -213.3847   386.9108 C5            1 RES     
   13457 C5        -325.4258  -213.8869   387.5292 C5            1 RES     
   13458 C5        -325.7722  -215.3242   387.1568 C5            1 RES     
   13459 C5        -320.7393  -211.3355   382.5926 C5            1 RES     
   13460 C0        -319.6451  -211.8303   383.6153 C0            1 RES     
   13461 C5        -318.4972  -212.4594   382.7122 C5            1 RES     
   13462 C5        -318.4844  -214.0240   382.6663 C5            1 RES     
   13463 C5        -317.6912  -214.6803   383.8441 C5            1 RES     
   13464 C5        -316.1503  -214.5890   383.7437 C5            1 RES     
   13465 C5        -315.4029  -215.0768   384.9981 C5            1 RES     
   13466 C5        -315.4346  -216.5982   385.2385 C5            1 RES     
   13467 C5        -314.7652  -217.4487   384.1373 C5            1 RES     
   13468 C5        -313.2829  -217.1218   383.9286 C5            1 RES     
   13469 C5        -318.0912  -214.6083   381.2686 C5            1 RES     
   13470 C5        -316.8698  -213.9849   380.5446 C5            1 RES     
   13471 C5        -316.4417  -214.7718   379.2853 C5            1 RES     
   13472 C5        -317.5356  -214.8803   378.2060 C5            1 RES     
   13473 C5        -317.0843  -215.6597   376.9543 C5            1 RES     
   13474 C5        -315.9867  -214.9398   376.1469 C5            1 RES     
   13475 C5        -315.5350  -215.7188   374.8984 C5            1 RES     
   13476 C5        -316.6378  -215.9026   373.8548 C5            1 RES     
   13477 H6        -325.4257  -203.2995   382.6261 H6            1 RES     
   13478 H6        -325.1882  -201.9026   383.7250 H6            1 RES     
   13479 H6        -325.9999  -203.3897   384.3435 H6            1 RES     
   13480 H6        -323.0498  -203.1564   383.4306 H6            1 RES     
   13481 H6        -323.6317  -203.1734   385.1338 H6            1 RES     
   13482 H6        -322.7567  -205.3701   384.5277 H6            1 RES     
   13483 H6        -324.5197  -205.4599   384.8778 H6            1 RES     
   13484 H6        -323.2660  -205.3903   382.0373 H6            1 RES     
   13485 H6        -325.0237  -205.5348   382.4404 H6            1 RES     
   13486 H6        -322.8060  -207.5510   383.1908 H6            1 RES     
   13487 H6        -324.5428  -207.6230   383.7172 H6            1 RES     
   13488 H6        -325.3452  -207.7734   381.4685 H6            1 RES     
   13489 H6        -323.6967  -207.7206   380.7552 H6            1 RES     
   13490 H6        -324.7240  -209.8470   382.7568 H6            1 RES     
   13491 H6        -324.8212  -210.0163   380.9900 H6            1 RES     
   13492 H6        -322.0938  -209.3701   381.4048 H6            1 RES     
   13493 H6        -322.7787  -210.8879   380.7914 H6            1 RES     
   13494 H6        -322.2895  -210.1989   383.6691 H6            1 RES     
   13495 H6        -324.1679  -211.8112   383.2598 H6            1 RES     
   13496 H6        -323.0212  -213.0216   382.6768 H6            1 RES     
   13497 H6        -321.9823  -213.0263   385.0156 H6            1 RES     
   13498 H6        -322.9304  -211.5427   385.4013 H6            1 RES     
   13499 H6        -324.2208  -214.2852   384.9002 H6            1 RES     
   13500 H6        -325.0761  -212.7114   385.1203 H6            1 RES     
   13501 H6        -323.2542  -214.0184   387.2296 H6            1 RES     
   13502 H6        -323.9533  -212.3616   387.3211 H6            1 RES     
   13503 H6        -326.2602  -213.2169   387.2231 H6            1 RES     
   13504 H6        -325.3344  -213.8295   388.6356 H6            1 RES     
   13505 H6        -324.9652  -216.0097   387.4896 H6            1 RES     
   13506 H6        -325.9244  -215.4268   386.0631 H6            1 RES     
   13507 H6        -326.7167  -215.6131   387.6664 H6            1 RES     
   13508 H6        -320.2587  -210.4605   382.1009 H6            1 RES     
   13509 H6        -320.8519  -212.1249   381.8132 H6            1 RES     
   13510 H6        -318.6408  -212.0908   381.6747 H6            1 RES     
   13511 H6        -317.4903  -212.0712   382.9189 H6            1 RES     
   13512 H6        -319.5402  -214.3518   382.8061 H6            1 RES     
   13513 H6        -318.0365  -214.2119   384.7912 H6            1 RES     
   13514 H6        -317.9527  -215.7591   383.8904 H6            1 RES     
   13515 H6        -315.7756  -215.1636   382.8791 H6            1 RES     
   13516 H6        -315.8687  -213.5370   383.5898 H6            1 RES     
   13517 H6        -314.3414  -214.7608   384.9200 H6            1 RES     
   13518 H6        -315.8212  -214.5636   385.8874 H6            1 RES     
   13519 H6        -316.4857  -216.9312   385.3638 H6            1 RES     
   13520 H6        -314.9035  -216.8006   386.1947 H6            1 RES     
   13521 H6        -315.3039  -217.3387   383.1740 H6            1 RES     
   13522 H6        -314.8389  -218.5155   384.4403 H6            1 RES     
   13523 H6        -312.7194  -217.2455   384.8780 H6            1 RES     
   13524 H6        -312.8540  -217.8117   383.1714 H6            1 RES     
   13525 H6        -313.1478  -216.0872   383.5521 H6            1 RES     
   13526 H6        -318.9571  -214.4441   380.5928 H6            1 RES     
   13527 H6        -317.9627  -215.7073   381.3781 H6            1 RES     
   13528 H6        -315.9808  -213.9443   381.1900 H6            1 RES     
   13529 H6        -317.0967  -212.9388   380.2571 H6            1 RES     
   13530 H6        -315.5582  -214.2469   378.8671 H6            1 RES     
   13531 H6        -316.1256  -215.7949   379.5865 H6            1 RES     
   13532 H6        -317.8809  -213.8670   377.9068 H6            1 RES     
   13533 H6        -318.3980  -215.4336   378.6329 H6            1 RES     
   13534 H6        -316.7347  -216.6724   377.2530 H6            1 RES     
   13535 H6        -317.9796  -215.7776   376.3093 H6            1 RES     
   13536 H6        -315.0871  -214.8089   376.7817 H6            1 RES     
   13537 H6        -316.3484  -213.9339   375.8406 H6            1 RES     
   13538 H6        -314.7084  -215.1490   374.4205 H6            1 RES     
   13539 H6        -315.1397  -216.7138   375.1973 H6            1 RES     
   13540 H6        -317.4658  -216.5254   374.2490 H6            1 RES     
   13541 H6        -316.2189  -216.4209   372.9663 H6            1 RES     
   13542 H6        -317.0347  -214.9161   373.5348 H6            1 RES     
   13543 C0        -329.1353  -203.7819   387.2678 C0            1 RES     
   13544 C0        -329.7216  -203.3959   388.6262 C0            1 RES     
   13545 C0        -329.3018  -204.2350   389.6034 C0            1 RES     
   13546 S1        -329.8662  -203.8191   391.1233 S1            1 RES     
   13547 C0        -330.7121  -202.4676   390.5234 C0            1 RES     
   13548 C0        -330.4831  -202.3492   389.1419 C0            1 RES     
   13549 C0        -328.3476  -205.1444   389.0694 C0            1 RES     
   13550 C0        -328.1874  -204.8706   387.7943 C0            1 RES     
   13551 C0        -327.0414  -205.5662   387.2390 C0            1 RES     
   13552 C0        -326.4372  -206.3577   388.2040 C0            1 RES     
   13553 S1        -327.2368  -206.3187   389.8212 S1            1 RES     
   13554 H2        -330.8172  -201.5038   388.5792 H2            1 RES     
   13555 H2        -326.6130  -205.3902   386.2673 H2            1 RES     
   13556 N3        -333.3114  -199.8705   391.3534 N3            1 RES     
   13557 C0        -332.5167  -200.7396   390.6660 C0            1 RES     
   13558 C0        -331.5440  -201.5243   391.3178 C0            1 RES     
   13559 C0        -331.4397  -201.3787   392.7111 C0            1 RES     
   13560 N3        -330.5552  -202.0549   393.4917 N3            1 RES     
   13561 S1        -330.8756  -201.4541   394.9988 S1            1 RES     
   13562 N3        -332.0915  -200.3660   394.7423 N3            1 RES     
   13563 C0        -332.2737  -200.4576   393.3998 C0            1 RES     
   13564 C0        -333.2112  -199.7084   392.7011 C0            1 RES     
   13565 H4        -332.6683  -200.8423   389.6060 H4            1 RES     
   13566 C5        -332.4186  -194.7640   389.5751 C5            1 RES     
   13567 C5        -331.2654  -195.7684   389.5535 C5            1 RES     
   13568 C5        -331.7023  -197.2056   389.2186 C5            1 RES     
   13569 C5        -332.3348  -197.3629   387.8216 C5            1 RES     
   13570 C5        -332.6895  -198.8360   387.5553 C5            1 RES     
   13571 C5        -333.5151  -199.0263   386.2750 C5            1 RES     
   13572 C5        -333.9393  -200.4983   386.0573 C5            1 RES     
   13573 C5        -332.8372  -201.4237   385.4540 C5            1 RES     
   13574 C5        -332.3796  -202.6303   386.3303 C5            1 RES     
   13575 C5        -333.5529  -203.5965   386.6666 C5            1 RES     
   13576 C5        -333.2984  -204.4078   387.9507 C5            1 RES     
   13577 C5        -334.6159  -204.9425   388.5520 C5            1 RES     
   13578 C5        -334.3901  -205.4980   389.9698 C5            1 RES     
   13579 C5        -335.6987  -205.7676   390.7341 C5            1 RES     
   13580 C5        -336.5512  -206.8748   390.1243 C5            1 RES     
   13581 C5        -331.1723  -203.3090   385.6048 C5            1 RES     
   13582 C0        -330.1724  -204.3681   386.2101 C0            1 RES     
   13583 C5        -329.4371  -205.0016   384.9504 C5            1 RES     
   13584 C5        -329.9509  -206.4218   384.5386 C5            1 RES     
   13585 C5        -329.2636  -207.5893   385.3208 C5            1 RES     
   13586 C5        -327.8100  -207.9097   384.9001 C5            1 RES     
   13587 C5        -327.0988  -208.9328   385.8043 C5            1 RES     
   13588 C5        -327.5997  -210.3848   385.6835 C5            1 RES     
   13589 C5        -327.4119  -211.0280   384.2925 C5            1 RES     
   13590 C5        -325.9499  -211.0851   383.8375 C5            1 RES     
   13591 C5        -329.9739  -206.6574   382.9916 C5            1 RES     
   13592 C5        -328.7292  -206.2192   382.1773 C5            1 RES     
   13593 C5        -328.7676  -206.6903   380.7058 C5            1 RES     
   13594 C5        -329.9753  -206.1659   379.9060 C5            1 RES     
   13595 C5        -329.9885  -206.6389   378.4383 C5            1 RES     
   13596 C5        -328.8389  -206.0533   377.5955 C5            1 RES     
   13597 C5        -328.8512  -206.5270   376.1309 C5            1 RES     
   13598 C5        -330.0872  -206.0794   375.3493 C5            1 RES     
   13599 H6        -332.8721  -194.6565   388.5690 H6            1 RES     
   13600 H6        -332.0329  -193.7682   389.8812 H6            1 RES     
   13601 H6        -333.1969  -195.0801   390.3017 H6            1 RES     
   13602 H6        -330.4955  -195.4293   388.8282 H6            1 RES     
   13603 H6        -330.8052  -195.7796   390.5664 H6            1 RES     
   13604 H6        -330.8030  -197.8559   389.2829 H6            1 RES     
   13605 H6        -332.4284  -197.5447   389.9902 H6            1 RES     
   13606 H6        -331.6340  -197.0024   387.0372 H6            1 RES     
   13607 H6        -333.2651  -196.7582   387.7807 H6            1 RES     
   13608 H6        -331.7603  -199.4441   387.5201 H6            1 RES     
   13609 H6        -333.3305  -199.1755   388.3924 H6            1 RES     
   13610 H6        -334.4442  -198.4293   386.4110 H6            1 RES     
   13611 H6        -332.9890  -198.6359   385.3774 H6            1 RES     
   13612 H6        -334.3724  -200.8762   387.0054 H6            1 RES     
   13613 H6        -334.7670  -200.4865   385.3166 H6            1 RES     
   13614 H6        -331.9501  -200.7843   385.2454 H6            1 RES     
   13615 H6        -333.1788  -201.7993   384.4651 H6            1 RES     
   13616 H6        -332.0903  -202.1494   387.2377 H6            1 RES     
   13617 H6        -334.4350  -202.9749   386.8972 H6            1 RES     
   13618 H6        -333.8488  -204.2330   385.8047 H6            1 RES     
   13619 H6        -332.5533  -205.2138   387.7818 H6            1 RES     
   13620 H6        -332.8913  -203.7042   388.7067 H6            1 RES     
   13621 H6        -335.0755  -205.7012   387.8830 H6            1 RES     
   13622 H6        -335.3202  -204.0867   388.6513 H6            1 RES     
   13623 H6        -333.7587  -206.4108   389.9308 H6            1 RES     
   13624 H6        -333.8481  -204.7267   390.5618 H6            1 RES     
   13625 H6        -336.2977  -204.8311   390.7890 H6            1 RES     
   13626 H6        -335.4393  -206.0646   391.7735 H6            1 RES     
   13627 H6        -335.9792  -207.8257   390.0971 H6            1 RES     
   13628 H6        -336.8805  -206.6058   389.1001 H6            1 RES     
   13629 H6        -337.4566  -207.0224   390.7515 H6            1 RES     
   13630 H6        -330.5026  -202.5006   385.2358 H6            1 RES     
   13631 H6        -331.6486  -203.7708   384.7086 H6            1 RES     
   13632 H6        -329.5942  -204.3208   384.0875 H6            1 RES     
   13633 H6        -328.3400  -204.9904   385.0098 H6            1 RES     
   13634 H6        -331.0249  -206.4654   384.8322 H6            1 RES     
   13635 H6        -329.2975  -207.3413   386.4039 H6            1 RES     
   13636 H6        -329.8592  -208.5153   385.1715 H6            1 RES     
   13637 H6        -327.7724  -208.2873   383.8636 H6            1 RES     
   13638 H6        -327.2197  -206.9825   384.9368 H6            1 RES     
   13639 H6        -326.0147  -208.9196   385.5651 H6            1 RES     
   13640 H6        -327.1940  -208.6064   386.8595 H6            1 RES     
   13641 H6        -328.6731  -210.4302   385.9610 H6            1 RES     
   13642 H6        -327.0373  -210.9989   386.4210 H6            1 RES     
   13643 H6        -328.0129  -210.4942   383.5283 H6            1 RES     
   13644 H6        -327.7922  -212.0710   384.3465 H6            1 RES     
   13645 H6        -325.3321  -211.6343   384.5796 H6            1 RES     
   13646 H6        -325.8849  -211.6146   382.8635 H6            1 RES     
   13647 H6        -325.5332  -210.0673   383.6926 H6            1 RES     
   13648 H6        -330.8220  -206.0661   382.5857 H6            1 RES     
   13649 H6        -330.2036  -207.7300   382.8095 H6            1 RES     
   13650 H6        -327.7960  -206.6209   382.5969 H6            1 RES     
   13651 H6        -328.6339  -205.1152   382.2007 H6            1 RES     
   13652 H6        -327.8279  -206.3366   380.2338 H6            1 RES     
   13653 H6        -328.7701  -207.8024   380.6806 H6            1 RES     
   13654 H6        -330.0031  -205.0553   379.9374 H6            1 RES     
   13655 H6        -330.9036  -206.5540   380.3748 H6            1 RES     
   13656 H6        -329.9567  -207.7502   378.4056 H6            1 RES     
   13657 H6        -330.9533  -206.3061   378.0024 H6            1 RES     
   13658 H6        -327.8673  -206.3724   378.0238 H6            1 RES     
   13659 H6        -328.8855  -204.9426   377.6222 H6            1 RES     
   13660 H6        -327.9579  -206.0988   375.6257 H6            1 RES     
   13661 H6        -328.7708  -207.6349   376.0922 H6            1 RES     
   13662 H6        -331.0111  -206.5312   375.7632 H6            1 RES     
   13663 H6        -329.9931  -206.4109   374.2934 H6            1 RES     
   13664 H6        -330.1749  -204.9726   375.3663 H6            1 RES     
   13665 C0        -335.8419  -195.4126   393.6825 C0            1 RES     
   13666 C0        -336.0703  -195.2925   395.1896 C0            1 RES     
   13667 C0        -335.8202  -196.4634   395.8234 C0            1 RES     
   13668 S1        -335.9955  -196.3693   397.4854 S1            1 RES     
   13669 C0        -336.4201  -194.7207   397.4241 C0            1 RES     
   13670 C0        -336.3609  -194.2726   396.0935 C0            1 RES     
   13671 C0        -335.3067  -197.4066   394.8910 C0            1 RES     
   13672 C0        -335.2452  -196.8282   393.7128 C0            1 RES     
   13673 C0        -334.4849  -197.6237   392.7668 C0            1 RES     
   13674 C0        -334.0487  -198.7994   393.3587 C0            1 RES     
   13675 S1        -334.5549  -199.0121   395.0776 S1            1 RES     
   13676 H2        -336.4709  -193.2413   395.8339 H2            1 RES     
   13677 H2        -334.1631  -197.2990   391.7924 H2            1 RES     
   13678 N3        -337.8665  -191.8591   399.4013 N3            1 RES     
   13679 C0        -337.5100  -192.6758   398.3691 C0            1 RES     
   13680 C0        -336.7718  -193.8571   398.5833 C0            1 RES     
   13681 C0        -336.4308  -194.1611   399.9117 C0            1 RES     
   13682 N3        -335.7207  -195.2563   400.2929 N3            1 RES     
   13683 S1        -335.6088  -195.0581   401.9309 S1            1 RES     
   13684 N3        -336.4179  -193.6467   402.2163 N3            1 RES     
   13685 C0        -336.8065  -193.2863   400.9661 C0            1 RES     
   13686 C0        -337.5303  -192.1334   400.6914 C0            1 RES     
   13687 H4        -337.8342  -192.4167   397.3767 H4            1 RES     
   13688 C5        -335.5882  -186.9227   398.7107 C5            1 RES     
   13689 C5        -334.8488  -188.1586   398.1959 C5            1 RES     
   13690 C5        -335.7804  -189.2512   397.6419 C5            1 RES     
   13691 C5        -336.6184  -188.8083   396.4263 C5            1 RES     
   13692 C5        -337.4756  -189.9771   395.9103 C5            1 RES     
   13693 C5        -338.4884  -189.5441   394.8407 C5            1 RES     
   13694 C5        -339.4032  -190.7065   394.3866 C5            1 RES     
   13695 C5        -338.7668  -191.6856   393.3515 C5            1 RES     
   13696 C5        -338.6176  -193.1735   393.7955 C5            1 RES     
   13697 C5        -339.9856  -193.8250   394.1523 C5            1 RES     
   13698 C5        -339.8374  -195.0139   395.1201 C5            1 RES     
   13699 C5        -341.1596  -195.3080   395.8607 C5            1 RES     
   13700 C5        -340.9345  -196.2941   397.0212 C5            1 RES     
   13701 C5        -342.1376  -196.3962   397.9760 C5            1 RES     
   13702 C5        -343.3858  -196.9900   397.3326 C5            1 RES     
   13703 C5        -337.8183  -193.9210   392.6789 C5            1 RES     
   13704 C0        -337.1523  -195.3473   392.7788 C0            1 RES     
   13705 C5        -336.8532  -195.7644   391.2737 C5            1 RES     
   13706 C5        -337.8615  -196.7974   390.6682 C5            1 RES     
   13707 C5        -337.4983  -198.2865   390.9806 C5            1 RES     
   13708 C5        -336.3076  -198.8650   390.1803 C5            1 RES     
   13709 C5        -335.8570  -200.2647   390.6364 C5            1 RES     
   13710 C5        -336.8230  -201.4155   390.2959 C5            1 RES     
   13711 C5        -337.0564  -201.6491   388.7876 C5            1 RES     
   13712 C5        -335.7753  -201.9792   388.0146 C5            1 RES     
   13713 C5        -338.1782  -196.5535   389.1551 C5            1 RES     
   13714 C5        -336.9858  -196.2647   388.2067 C5            1 RES     
   13715 C5        -337.3842  -196.2539   386.7135 C5            1 RES     
   13716 C5        -338.4490  -195.2010   386.3515 C5            1 RES     
   13717 C5        -338.8240  -195.2000   384.8558 C5            1 RES     
   13718 C5        -337.6754  -194.7415   383.9364 C5            1 RES     
   13719 C5        -338.0494  -194.7424   382.4432 C5            1 RES     
   13720 C5        -339.1635  -193.7570   382.0868 C5            1 RES     
   13721 H6        -336.1167  -186.4025   397.8863 H6            1 RES     
   13722 H6        -334.8550  -186.2106   399.1460 H6            1 RES     
   13723 H6        -336.3172  -187.2053   399.4995 H6            1 RES     
   13724 H6        -334.1198  -187.8529   397.4157 H6            1 RES     
   13725 H6        -334.2812  -188.5947   399.0477 H6            1 RES     
   13726 H6        -335.1483  -190.1173   397.3483 H6            1 RES     
   13727 H6        -336.4620  -189.5828   398.4562 H6            1 RES     
   13728 H6        -335.9550  -188.4464   395.6106 H6            1 RES     
   13729 H6        -337.2913  -187.9822   396.7384 H6            1 RES     
   13730 H6        -336.8155  -190.7837   395.5256 H6            1 RES     
   13731 H6        -338.0689  -190.3521   396.7671 H6            1 RES     
   13732 H6        -339.1379  -188.7771   395.3181 H6            1 RES     
   13733 H6        -337.9939  -189.0726   393.9643 H6            1 RES     
   13734 H6        -339.7996  -191.2075   395.2927 H6            1 RES     
   13735 H6        -340.2752  -190.2462   393.8751 H6            1 RES     
   13736 H6        -337.7563  -191.2896   393.1038 H6            1 RES     
   13737 H6        -339.3488  -191.6435   392.4053 H6            1 RES     
   13738 H6        -338.0608  -193.0808   394.7010 H6            1 RES     
   13739 H6        -340.5698  -193.0764   394.7143 H6            1 RES     
   13740 H6        -340.5936  -194.0713   393.2550 H6            1 RES     
   13741 H6        -339.4335  -195.9106   394.6043 H6            1 RES     
   13742 H6        -339.1181  -194.7065   395.9078 H6            1 RES     
   13743 H6        -341.9339  -195.6764   395.1543 H6            1 RES     
   13744 H6        -341.5186  -194.3569   396.3133 H6            1 RES     
   13745 H6        -340.6539  -197.2945   396.6290 H6            1 RES     
   13746 H6        -340.0899  -195.9149   397.6393 H6            1 RES     
   13747 H6        -342.3778  -195.3879   398.3816 H6            1 RES     
   13748 H6        -341.8485  -197.0447   398.8314 H6            1 RES     
   13749 H6        -343.1716  -198.0119   396.9560 H6            1 RES     
   13750 H6        -343.7472  -196.3518   396.5009 H6            1 RES     
   13751 H6        -344.1914  -197.0538   398.0954 H6            1 RES     
   13752 H6        -336.9770  -193.2625   392.3678 H6            1 RES     
   13753 H6        -338.5416  -193.9468   391.8306 H6            1 RES     
   13754 H6        -336.8948  -194.8455   390.6518 H6            1 RES     
   13755 H6        -335.8177  -196.0800   391.0853 H6            1 RES     
   13756 H6        -338.8368  -196.6211   391.1777 H6            1 RES     
   13757 H6        -337.2957  -198.3673   392.0706 H6            1 RES     
   13758 H6        -338.3821  -198.9217   390.7573 H6            1 RES     
   13759 H6        -336.5432  -198.9174   389.1033 H6            1 RES     
   13760 H6        -335.4440  -198.1943   390.2986 H6            1 RES     
   13761 H6        -334.8749  -200.4874   390.1691 H6            1 RES     
   13762 H6        -335.6894  -200.2483   391.7323 H6            1 RES     
   13763 H6        -337.8006  -201.2364   390.7896 H6            1 RES     
   13764 H6        -336.3988  -202.3507   390.7234 H6            1 RES     
   13765 H6        -337.5470  -200.7686   388.3249 H6            1 RES     
   13766 H6        -337.7497  -202.5112   388.6808 H6            1 RES     
   13767 H6        -335.2773  -202.8721   388.4492 H6            1 RES     
   13768 H6        -336.0270  -202.1964   386.9550 H6            1 RES     
   13769 H6        -335.0692  -201.1238   388.0214 H6            1 RES     
   13770 H6        -338.8299  -195.6558   389.1003 H6            1 RES     
   13771 H6        -338.7739  -197.4159   388.7841 H6            1 RES     
   13772 H6        -336.1897  -197.0171   388.2996 H6            1 RES     
   13773 H6        -336.5272  -195.2893   388.4653 H6            1 RES     
   13774 H6        -336.4564  -196.0567   386.1380 H6            1 RES     
   13775 H6        -337.7592  -197.2622   386.4305 H6            1 RES     
   13776 H6        -338.1018  -194.1873   386.6469 H6            1 RES     
   13777 H6        -339.3780  -195.4319   386.9135 H6            1 RES     
   13778 H6        -339.1678  -196.2151   384.5581 H6            1 RES     
   13779 H6        -339.6746  -194.4971   384.7385 H6            1 RES     
   13780 H6        -336.8150  -195.4317   384.0481 H6            1 RES     
   13781 H6        -337.3465  -193.7211   384.2315 H6            1 RES     
   13782 H6        -337.1449  -194.4543   381.8641 H6            1 RES     
   13783 H6        -338.3476  -195.7662   382.1296 H6            1 RES     
   13784 H6        -340.1172  -194.0313   382.5809 H6            1 RES     
   13785 H6        -339.3338  -193.7775   380.9894 H6            1 RES     
   13786 H6        -338.8756  -192.7258   382.3811 H6            1 RES     
   13787 C0        -338.4209  -187.7548   403.2156 C0            1 RES     
   13788 C0        -338.3828  -188.0219   404.7206 C0            1 RES     
   13789 C0        -338.4493  -189.3478   404.9903 C0            1 RES     
   13790 S1        -338.3486  -189.6988   406.6238 S1            1 RES     
   13791 C0        -338.2061  -188.0548   407.0466 C0            1 RES     
   13792 C0        -338.1887  -187.2725   405.8793 C0            1 RES     
   13793 C0        -338.4140  -190.0813   403.7724 C0            1 RES     
   13794 C0        -338.3299  -189.2253   402.7792 C0            1 RES     
   13795 C0        -338.0173  -189.8893   401.5274 C0            1 RES     
   13796 C0        -337.9176  -191.2597   401.7143 C0            1 RES     
   13797 S1        -338.2194  -191.8147   403.4046 S1            1 RES     
   13798 H2        -337.9854  -186.2231   405.8994 H2            1 RES     
   13799 H2        -337.7460  -189.3978   400.6090 H2            1 RES     
   13800 N3        -338.3284  -185.6113   409.9109 N3            1 RES     
   13801 C0        -338.4116  -186.1559   408.6635 C0            1 RES     
   13802 C0        -338.0850  -187.5058   408.4239 C0            1 RES     
   13803 C0        -337.6815  -188.2682   409.5326 C0            1 RES     
   13804 N3        -337.3291  -189.5804   409.4775 N3            1 RES     
   13805 S1        -336.9293  -189.9101   411.0479 S1            1 RES     
   13806 N3        -337.1756  -188.4762   411.8298 N3            1 RES     
   13807 C0        -337.5938  -187.6717   410.8189 C0            1 RES     
   13808 C0        -337.9249  -186.3341   410.9914 C0            1 RES     
   13809 H4        -338.7671  -185.5376   407.8583 H4            1 RES     
   13810 C5        -334.6615  -181.5382   409.8974 C5            1 RES     
   13811 C5        -334.4541  -182.7251   408.9552 C5            1 RES     
   13812 C5        -335.7635  -183.2996   408.3859 C5            1 RES     
   13813 C5        -336.5686  -182.3035   407.5283 C5            1 RES     
   13814 C5        -337.8285  -182.9796   406.9603 C5            1 RES     
   13815 C5        -338.7795  -181.9861   406.2779 C5            1 RES     
   13816 C5        -340.0823  -182.6583   405.7829 C5            1 RES     
   13817 C5        -339.9588  -183.4292   404.4318 C5            1 RES     
   13818 C5        -340.2512  -184.9610   404.4707 C5            1 RES     
   13819 C5        -341.6935  -185.2761   404.9641 C5            1 RES     
   13820 C5        -341.8142  -186.6875   405.5685 C5            1 RES     
   13821 C5        -343.0413  -186.8013   406.4982 C5            1 RES     
   13822 C5        -342.9960  -188.1054   407.3149 C5            1 RES     
   13823 C5        -344.0183  -188.1398   408.4653 C5            1 RES     
   13824 C5        -345.4699  -188.1433   407.9991 C5            1 RES     
   13825 C5        -339.9103  -185.5421   403.0598 C5            1 RES     
   13826 C0        -339.7483  -187.0622   402.6712 C0            1 RES     
   13827 C5        -339.8188  -187.0870   401.0827 C5            1 RES     
   13828 C5        -341.1871  -187.5704   400.4959 C5            1 RES     
   13829 C5        -341.2987  -189.1250   400.3618 C5            1 RES     
   13830 C5        -340.4923  -189.7544   399.2015 C5            1 RES     
   13831 C5        -340.4725  -191.2937   399.2045 C5            1 RES     
   13832 C5        -341.8033  -191.9742   398.8313 C5            1 RES     
   13833 C5        -342.3101  -191.6808   397.4026 C5            1 RES     
   13834 C5        -341.3329  -192.1165   396.3057 C5            1 RES     
   13835 C5        -341.6137  -186.8157   399.1930 C5            1 RES     
   13836 C5        -340.5386  -186.6095   398.0948 C5            1 RES     
   13837 C5        -341.1160  -186.0506   396.7746 C5            1 RES     
   13838 C5        -341.8105  -184.6831   396.9180 C5            1 RES     
   13839 C5        -342.3698  -184.1390   395.5879 C5            1 RES     
   13840 C5        -341.2751  -183.7739   394.5665 C5            1 RES     
   13841 C5        -341.8336  -183.2325   393.2382 C5            1 RES     
   13842 C5        -342.5958  -181.9144   393.3822 C5            1 RES     
   13843 H6        -335.0974  -180.6730   409.3581 H6            1 RES     
   13844 H6        -333.6801  -181.2209   410.3102 H6            1 RES     
   13845 H6        -335.3248  -181.8224   410.7417 H6            1 RES     
   13846 H6        -333.7820  -182.4224   408.1244 H6            1 RES     
   13847 H6        -333.9499  -183.5325   409.5313 H6            1 RES     
   13848 H6        -335.5024  -184.1829   407.7635 H6            1 RES     
   13849 H6        -336.3952  -183.6493   409.2322 H6            1 RES     
   13850 H6        -335.9441  -181.9205   406.6918 H6            1 RES     
   13851 H6        -336.8783  -181.4505   408.1680 H6            1 RES     
   13852 H6        -337.5344  -183.7899   406.2593 H6            1 RES     
   13853 H6        -338.3863  -183.4062   407.8169 H6            1 RES     
   13854 H6        -339.0639  -181.2421   407.0549 H6            1 RES     
   13855 H6        -338.2847  -181.4378   405.4476 H6            1 RES     
   13856 H6        -340.4914  -183.2699   406.6123 H6            1 RES     
   13857 H6        -340.8148  -181.8428   405.6031 H6            1 RES     
   13858 H6        -338.9195  -183.2790   404.0623 H6            1 RES     
   13859 H6        -340.6204  -182.9502   403.6778 H6            1 RES     
   13860 H6        -339.5741  -185.2978   405.2234 H6            1 RES     
   13861 H6        -341.9112  -184.5921   405.8022 H6            1 RES     
   13862 H6        -342.4683  -185.0677   404.1949 H6            1 RES     
   13863 H6        -341.8074  -187.4697   404.7802 H6            1 RES     
   13864 H6        -340.9307  -186.8394   406.2234 H6            1 RES     
   13865 H6        -343.9850  -186.7135   405.9184 H6            1 RES     
   13866 H6        -342.9971  -185.9635   407.2293 H6            1 RES     
   13867 H6        -343.1213  -188.9839   406.6471 H6            1 RES     
   13868 H6        -341.9956  -188.1772   407.7979 H6            1 RES     
   13869 H6        -343.8508  -187.2695   409.1385 H6            1 RES     
   13870 H6        -343.8439  -189.0642   409.0577 H6            1 RES     
   13871 H6        -345.6621  -189.0273   407.3560 H6            1 RES     
   13872 H6        -345.7119  -187.2150   407.4429 H6            1 RES     
   13873 H6        -346.1357  -188.1983   408.8873 H6            1 RES     
   13874 H6        -338.9505  -185.0858   402.7298 H6            1 RES     
   13875 H6        -340.7125  -185.1141   402.4143 H6            1 RES     
   13876 H6        -339.6398  -186.0536   400.7185 H6            1 RES     
   13877 H6        -338.9840  -187.6116   400.5976 H6            1 RES     
   13878 H6        -341.9670  -187.2842   401.2387 H6            1 RES     
   13879 H6        -340.9837  -189.5747   401.3283 H6            1 RES     
   13880 H6        -342.3653  -189.3916   400.2013 H6            1 RES     
   13881 H6        -340.8804  -189.4207   398.2236 H6            1 RES     
   13882 H6        -339.4475  -189.4188   399.2755 H6            1 RES     
   13883 H6        -339.6958  -191.6367   398.4892 H6            1 RES     
   13884 H6        -340.1571  -191.6466   400.2071 H6            1 RES     
   13885 H6        -342.5866  -191.6801   399.5603 H6            1 RES     
   13886 H6        -341.6581  -193.0733   398.9217 H6            1 RES     
   13887 H6        -342.5404  -190.6026   397.2811 H6            1 RES     
   13888 H6        -343.2579  -192.2424   397.2564 H6            1 RES     
   13889 H6        -341.1038  -193.1997   396.3960 H6            1 RES     
   13890 H6        -341.7884  -191.9341   395.3094 H6            1 RES     
   13891 H6        -340.3894  -191.5352   396.3528 H6            1 RES     
   13892 H6        -341.9314  -185.7960   399.4976 H6            1 RES     
   13893 H6        -342.5077  -187.3279   398.7748 H6            1 RES     
   13894 H6        -340.0326  -187.5482   397.8276 H6            1 RES     
   13895 H6        -339.7508  -185.9227   398.4638 H6            1 RES     
   13896 H6        -340.2657  -185.9630   396.0673 H6            1 RES     
   13897 H6        -341.8401  -186.7839   396.3559 H6            1 RES     
   13898 H6        -341.1088  -183.9406   397.3559 H6            1 RES     
   13899 H6        -342.6750  -184.7973   397.6049 H6            1 RES     
   13900 H6        -343.0691  -184.8830   395.1467 H6            1 RES     
   13901 H6        -342.9464  -183.2231   395.8327 H6            1 RES     
   13902 H6        -340.6858  -184.6793   394.3172 H6            1 RES     
   13903 H6        -340.5882  -183.0201   395.0099 H6            1 RES     
   13904 H6        -340.9754  -183.0542   392.5539 H6            1 RES     
   13905 H6        -342.4955  -183.9927   392.7696 H6            1 RES     
   13906 H6        -343.5072  -182.0415   394.0003 H6            1 RES     
   13907 H6        -342.9153  -181.5641   392.3778 H6            1 RES     
   13908 H6        -341.9437  -181.1390   393.8366 H6            1 RES     
   13909 C0        -336.9485  -182.8205   414.6023 C0            1 RES     
   13910 C0        -336.7906  -183.5157   415.9549 C0            1 RES     
   13911 C0        -337.2548  -184.7877   415.9153 C0            1 RES     
   13912 S1        -337.0484  -185.6149   417.3558 S1            1 RES     
   13913 C0        -336.3105  -184.2761   418.1075 C0            1 RES     
   13914 C0        -336.1983  -183.2244   417.1821 C0            1 RES     
   13915 C0        -337.6362  -185.1117   414.5841 C0            1 RES     
   13916 C0        -337.4128  -184.0623   413.8255 C0            1 RES     
   13917 C0        -337.5172  -184.3907   412.4160 C0            1 RES     
   13918 C0        -337.8528  -185.7259   412.2503 C0            1 RES     
   13919 S1        -338.0816  -186.6430   413.7875 S1            1 RES     
   13920 H2        -335.6576  -182.3283   417.4005 H2            1 RES     
   13921 H2        -337.2297  -183.7491   411.6009 H2            1 RES     
   13922 N3        -335.2120  -182.8467   421.4151 N3            1 RES     
   13923 C0        -335.6453  -182.9560   420.1268 C0            1 RES     
   13924 C0        -335.8223  -184.2115   419.5112 C0            1 RES     
   13925 C0        -335.5435  -185.3462   420.2910 C0            1 RES     
   13926 N3        -335.6580  -186.6284   419.8530 N3            1 RES     
   13927 S1        -335.1743  -187.5017   421.1714 S1            1 RES     
   13928 N3        -334.8185  -186.3507   422.3014 N3            1 RES     
   13929 C0        -335.0833  -185.2020   421.6273 C0            1 RES     
   13930 C0        -334.9240  -183.9369   422.1774 C0            1 RES     
   13931 H4        -335.8846  -182.0553   419.5896 H4            1 RES     
   13932 C5        -330.4414  -180.1513   421.5276 C5            1 RES     
   13933 C5        -330.7741  -181.0186   420.3125 C5            1 RES     
   13934 C5        -332.2660  -181.0089   419.9347 C5            1 RES     
   13935 C5        -332.8067  -179.6211   419.5375 C5            1 RES     
   13936 C5        -334.2860  -179.7185   419.1261 C5            1 RES     
   13937 C5        -334.9391  -178.3435   418.9269 C5            1 RES     
   13938 C5        -336.4469  -178.4466   418.5952 C5            1 RES     
   13939 C5        -336.7770  -178.7906   417.1093 C5            1 RES     
   13940 C5        -337.5526  -180.1196   416.8543 C5            1 RES     
   13941 C5        -338.9335  -180.1465   417.5723 C5            1 RES     
   13942 C5        -339.4298  -181.5794   417.8415 C5            1 RES     
   13943 C5        -340.4819  -181.6104   418.9708 C5            1 RES     
   13944 C5        -340.7579  -183.0540   419.4285 C5            1 RES     
   13945 C5        -341.5617  -183.1346   420.7388 C5            1 RES     
   13946 C5        -342.9823  -182.5932   420.6242 C5            1 RES     
   13947 C5        -337.6253  -180.3338   415.3072 C5            1 RES     
   13948 C0        -338.0332  -181.6549   414.5481 C0            1 RES     
   13949 C5        -338.3299  -181.1929   413.0557 C5            1 RES     
   13950 C5        -339.8491  -181.0782   412.6960 C5            1 RES     
   13951 C5        -340.4880  -182.4284   412.2311 C5            1 RES     
   13952 C5        -340.1072  -182.8908   410.8050 C5            1 RES     
   13953 C5        -340.5993  -184.3042   410.4439 C5            1 RES     
   13954 C5        -342.1189  -184.4427   410.2317 C5            1 RES     
   13955 C5        -342.6945  -183.6139   409.0630 C5            1 RES     
   13956 C5        -342.0814  -183.9659   407.7036 C5            1 RES     
   13957 C5        -340.1792  -179.8872   411.7359 C5            1 RES     
   13958 C5        -339.2618  -179.6798   410.5030 C5            1 RES     
   13959 C5        -339.8001  -178.6203   409.5149 C5            1 RES     
   13960 C5        -339.9739  -177.2170   410.1264 C5            1 RES     
   13961 C5        -340.5016  -176.1733   409.1213 C5            1 RES     
   13962 C5        -339.5023  -175.8485   407.9939 C5            1 RES     
   13963 C5        -340.0299  -174.8080   406.9897 C5            1 RES     
   13964 C5        -340.2833  -173.4312   407.6054 C5            1 RES     
   13965 H6        -330.6365  -179.0801   421.3177 H6            1 RES     
   13966 H6        -329.3628  -180.2580   421.7711 H6            1 RES     
   13967 H6        -331.0362  -180.4716   422.4093 H6            1 RES     
   13968 H6        -330.1631  -180.6878   419.4459 H6            1 RES     
   13969 H6        -330.4909  -182.0669   420.5552 H6            1 RES     
   13970 H6        -332.4029  -181.7075   419.0809 H6            1 RES     
   13971 H6        -332.8526  -181.3985   420.7958 H6            1 RES     
   13972 H6        -332.2142  -179.2020   418.6951 H6            1 RES     
   13973 H6        -332.7228  -178.9417   420.4116 H6            1 RES     
   13974 H6        -334.3789  -180.3367   418.2077 H6            1 RES     
   13975 H6        -334.8278  -180.2023   419.9624 H6            1 RES     
   13976 H6        -334.8485  -177.8109   419.8997 H6            1 RES     
   13977 H6        -334.4118  -177.7385   418.1582 H6            1 RES     
   13978 H6        -336.9152  -179.1332   419.3290 H6            1 RES     
   13979 H6        -336.8847  -177.4427   418.7806 H6            1 RES     
   13980 H6        -335.8094  -178.8374   416.5608 H6            1 RES     
   13981 H6        -337.3408  -177.9461   416.6570 H6            1 RES     
   13982 H6        -336.9273  -180.8382   417.3350 H6            1 RES     
   13983 H6        -338.7920  -179.7054   418.5738 H6            1 RES     
   13984 H6        -339.6949  -179.5131   417.0679 H6            1 RES     
   13985 H6        -339.7935  -182.0655   416.9117 H6            1 RES     
   13986 H6        -338.5642  -182.1583   418.2265 H6            1 RES     
   13987 H6        -341.4144  -181.0951   418.6554 H6            1 RES     
   13988 H6        -340.0601  -181.0711   419.8480 H6            1 RES     
   13989 H6        -341.2600  -183.6262   418.6199 H6            1 RES     
   13990 H6        -339.7808  -183.5423   419.6432 H6            1 RES     
   13991 H6        -341.0222  -182.5833   421.5412 H6            1 RES     
   13992 H6        -341.6227  -184.2019   421.0441 H6            1 RES     
   13993 H6        -343.5451  -183.1589   419.8526 H6            1 RES     
   13994 H6        -342.9779  -181.5139   420.3693 H6            1 RES     
   13995 H6        -343.4971  -182.7162   421.6014 H6            1 RES     
   13996 H6        -336.6248  -180.0901   414.8855 H6            1 RES     
   13997 H6        -338.3221  -179.5281   414.9773 H6            1 RES     
   13998 H6        -337.8710  -180.1922   412.9122 H6            1 RES     
   13999 H6        -337.7933  -181.7651   412.2862 H6            1 RES     
   14000 H6        -340.3774  -180.8147   413.6411 H6            1 RES     
   14001 H6        -340.2078  -183.2108   412.9693 H6            1 RES     
   14002 H6        -341.5939  -182.3252   412.2573 H6            1 RES     
   14003 H6        -340.4956  -182.1906   410.0453 H6            1 RES     
   14004 H6        -339.0108  -182.8996   410.7180 H6            1 RES     
   14005 H6        -340.0889  -184.6267   409.5121 H6            1 RES     
   14006 H6        -340.2816  -185.0088   411.2388 H6            1 RES     
   14007 H6        -342.6497  -184.1670   411.1664 H6            1 RES     
   14008 H6        -342.3355  -185.5145   410.0278 H6            1 RES     
   14009 H6        -342.5685  -182.5282   409.2517 H6            1 RES     
   14010 H6        -343.7856  -183.8179   409.0071 H6            1 RES     
   14011 H6        -342.2145  -185.0468   407.4844 H6            1 RES     
   14012 H6        -342.5855  -183.3796   406.9064 H6            1 RES     
   14013 H6        -341.0017  -183.7138   407.6714 H6            1 RES     
   14014 H6        -340.0944  -178.9551   412.3337 H6            1 RES     
   14015 H6        -341.2417  -179.9816   411.4221 H6            1 RES     
   14016 H6        -339.1389  -180.6018   409.9171 H6            1 RES     
   14017 H6        -338.2472  -179.3816   410.8351 H6            1 RES     
   14018 H6        -339.0770  -178.5723   408.6748 H6            1 RES     
   14019 H6        -340.7776  -178.9643   409.1107 H6            1 RES     
   14020 H6        -339.0116  -176.8640   410.5559 H6            1 RES     
   14021 H6        -340.7219  -177.2793   410.9442 H6            1 RES     
   14022 H6        -341.4627  -176.5275   408.6877 H6            1 RES     
   14023 H6        -340.7011  -175.2457   409.6967 H6            1 RES     
   14024 H6        -339.2882  -176.7688   407.4139 H6            1 RES     
   14025 H6        -338.5493  -175.4826   408.4346 H6            1 RES     
   14026 H6        -339.2661  -174.6861   406.1908 H6            1 RES     
   14027 H6        -340.9654  -175.1795   406.5181 H6            1 RES     
   14028 H6        -341.0890  -173.4719   408.3658 H6            1 RES     
   14029 H6        -340.6059  -172.7272   406.8091 H6            1 RES     
   14030 H6        -339.3539  -173.0388   408.0695 H6            1 RES     
   14031 C0        -332.3408  -182.0569   426.1936 C0            1 RES     
   14032 C0        -332.2346  -183.1325   427.2751 C0            1 RES     
   14033 C0        -333.0954  -184.1529   427.0451 C0            1 RES     
   14034 S1        -332.9754  -185.3885   428.1680 S1            1 RES     
   14035 C0        -331.7373  -184.5924   429.0255 C0            1 RES     
   14036 C0        -331.4134  -183.3920   428.3705 C0            1 RES     
   14037 C0        -333.7453  -183.9522   425.7962 C0            1 RES     
   14038 C0        -333.2950  -182.8339   425.2734 C0            1 RES     
   14039 C0        -333.6990  -182.6923   423.8869 C0            1 RES     
   14040 C0        -334.4784  -183.7698   423.4940 C0            1 RES     
   14041 S1        -334.7807  -184.9934   424.7854 S1            1 RES     
   14042 H2        -330.5809  -182.7889   428.6645 H2            1 RES     
   14043 H2        -333.3321  -181.9482   423.2011 H2            1 RES     
   14044 N3        -329.7744  -184.5628   432.2404 N3            1 RES     
   14045 C0        -330.3955  -184.1638   431.0939 C0            1 RES     
   14046 C0        -331.0636  -185.0814   430.2583 C0            1 RES     
   14047 C0        -331.0708  -186.4250   430.6681 C0            1 RES     
   14048 N3        -331.6647  -187.4365   429.9802 N3            1 RES     
   14049 S1        -331.3184  -188.7565   430.9143 S1            1 RES     
   14050 N3        -330.4461  -188.1352   432.1718 N3            1 RES     
   14051 C0        -330.4064  -186.8137   431.8621 C0            1 RES     
   14052 C0        -329.7608  -185.8632   432.6420 C0            1 RES     
   14053 H4        -330.3952  -183.1161   430.8501 H4            1 RES     
   14054 C5        -324.4139  -183.4737   431.9017 C5            1 RES     
   14055 C5        -325.1824  -183.8172   430.6247 C5            1 RES     
   14056 C5        -326.6239  -183.2783   430.6057 C5            1 RES     
   14057 C5        -326.7233  -181.7417   430.6760 C5            1 RES     
   14058 C5        -328.1933  -181.2944   430.5973 C5            1 RES     
   14059 C5        -328.3741  -179.7957   430.8772 C5            1 RES     
   14060 C5        -329.8614  -179.3689   430.8790 C5            1 RES     
   14061 C5        -330.4918  -179.1556   429.4675 C5            1 RES     
   14062 C5        -331.6922  -180.0776   429.0906 C5            1 RES     
   14063 C5        -332.8886  -179.9240   430.0745 C5            1 RES     
   14064 C5        -333.7893  -181.1728   430.1063 C5            1 RES     
   14065 C5        -334.6228  -181.2357   431.4043 C5            1 RES     
   14066 C5        -335.2952  -182.6114   431.5623 C5            1 RES     
   14067 C5        -335.8880  -182.8426   432.9639 C5            1 RES     
   14068 C5        -337.0496  -181.9147   433.3019 C5            1 RES     
   14069 C5        -332.0480  -179.8002   427.5936 C5            1 RES     
   14070 C0        -332.9734  -180.6707   426.6589 C0            1 RES     
   14071 C5        -333.3061  -179.7284   425.4219 C5            1 RES     
   14072 C5        -334.7356  -179.0911   425.4507 C5            1 RES     
   14073 C5        -335.8449  -180.0094   424.8396 C5            1 RES     
   14074 C5        -335.8431  -180.1218   423.2969 C5            1 RES     
   14075 C5        -336.8218  -181.1695   422.7360 C5            1 RES     
   14076 C5        -338.3151  -180.8066   422.8453 C5            1 RES     
   14077 C5        -338.7409  -179.5453   422.0631 C5            1 RES     
   14078 C5        -338.4764  -179.6416   420.5569 C5            1 RES     
   14079 C5        -334.7829  -177.6288   424.8951 C5            1 RES     
   14080 C5        -334.0311  -177.3364   423.5708 C5            1 RES     
   14081 C5        -334.3201  -175.9276   423.0048 C5            1 RES     
   14082 C5        -333.9308  -174.7751   423.9501 C5            1 RES     
   14083 C5        -334.2175  -173.3787   423.3620 C5            1 RES     
   14084 C5        -333.3357  -173.0330   422.1464 C5            1 RES     
   14085 C5        -333.6233  -171.6398   421.5583 C5            1 RES     
   14086 C5        -333.3163  -170.4903   422.5194 C5            1 RES     
   14087 H6        -324.2698  -182.3784   431.9974 H6            1 RES     
   14088 H6        -323.4090  -183.9458   431.8642 H6            1 RES     
   14089 H6        -324.9513  -183.8572   432.7949 H6            1 RES     
   14090 H6        -324.6242  -183.4331   429.7446 H6            1 RES     
   14091 H6        -325.2322  -184.9259   430.5457 H6            1 RES     
   14092 H6        -327.1032  -183.6285   429.6658 H6            1 RES     
   14093 H6        -327.1797  -183.7214   431.4614 H6            1 RES     
   14094 H6        -326.1497  -181.2787   429.8435 H6            1 RES     
   14095 H6        -326.2970  -181.4001   431.6426 H6            1 RES     
   14096 H6        -328.6139  -181.5644   429.6051 H6            1 RES     
   14097 H6        -328.7420  -181.8289   431.3974 H6            1 RES     
   14098 H6        -327.9764  -179.6191   431.9013 H6            1 RES     
   14099 H6        -327.7892  -179.1661   430.1726 H6            1 RES     
   14100 H6        -330.4232  -180.0795   431.5182 H6            1 RES     
   14101 H6        -329.9105  -178.3825   431.3874 H6            1 RES     
   14102 H6        -329.6816  -179.3100   428.7198 H6            1 RES     
   14103 H6        -330.8009  -178.0929   429.3639 H6            1 RES     
   14104 H6        -331.2799  -181.0508   429.2366 H6            1 RES     
   14105 H6        -332.4698  -179.8537   431.0930 H6            1 RES     
   14106 H6        -333.4593  -178.9833   429.9169 H6            1 RES     
   14107 H6        -334.4204  -181.2427   429.1952 H6            1 RES     
   14108 H6        -333.1201  -182.0579   430.1403 H6            1 RES     
   14109 H6        -335.3658  -180.4103   431.4364 H6            1 RES     
   14110 H6        -333.9273  -181.1181   432.2650 H6            1 RES     
   14111 H6        -336.0668  -182.7566   430.7768 H6            1 RES     
   14112 H6        -334.5157  -183.3953   431.4312 H6            1 RES     
   14113 H6        -335.0893  -182.7251   433.7301 H6            1 RES     
   14114 H6        -336.2564  -183.8901   433.0172 H6            1 RES     
   14115 H6        -337.8706  -182.0477   432.5668 H6            1 RES     
   14116 H6        -336.7230  -180.8549   433.3119 H6            1 RES     
   14117 H6        -337.4337  -182.1683   434.3135 H6            1 RES     
   14118 H6        -331.0929  -179.7353   427.0262 H6            1 RES     
   14119 H6        -332.4768  -178.7714   427.6266 H6            1 RES     
   14120 H6        -332.5660  -178.9008   425.4166 H6            1 RES     
   14121 H6        -333.1034  -180.1770   424.4396 H6            1 RES     
   14122 H6        -335.0085  -178.9783   426.5252 H6            1 RES     
   14123 H6        -335.7397  -181.0193   425.2920 H6            1 RES     
   14124 H6        -336.8386  -179.6118   425.1376 H6            1 RES     
   14125 H6        -336.0796  -179.1503   422.8293 H6            1 RES     
   14126 H6        -334.8355  -180.4126   422.9656 H6            1 RES     
   14127 H6        -336.5834  -181.3351   421.6644 H6            1 RES     
   14128 H6        -336.6479  -182.1353   423.2518 H6            1 RES     
   14129 H6        -338.5877  -180.6789   423.9134 H6            1 RES     
   14130 H6        -338.9016  -181.6656   422.4509 H6            1 RES     
   14131 H6        -338.2366  -178.6437   422.4668 H6            1 RES     
   14132 H6        -339.8342  -179.4086   422.2083 H6            1 RES     
   14133 H6        -338.9900  -180.5279   420.1272 H6            1 RES     
   14134 H6        -338.8638  -178.7308   420.0533 H6            1 RES     
   14135 H6        -337.3900  -179.7054   420.3421 H6            1 RES     
   14136 H6        -334.3106  -176.9756   425.6592 H6            1 RES     
   14137 H6        -335.8493  -177.3244   424.8156 H6            1 RES     
   14138 H6        -334.3046  -178.0422   422.7735 H6            1 RES     
   14139 H6        -332.9391  -177.4463   423.7259 H6            1 RES     
   14140 H6        -333.7474  -175.8412   422.0585 H6            1 RES     
   14141 H6        -335.4028  -175.8488   422.7623 H6            1 RES     
   14142 H6        -332.8557  -174.8487   424.2221 H6            1 RES     
   14143 H6        -334.5346  -174.8610   424.8776 H6            1 RES     
   14144 H6        -335.2924  -173.3053   423.0857 H6            1 RES     
   14145 H6        -334.0151  -172.6432   424.1679 H6            1 RES     
   14146 H6        -333.5227  -173.7646   421.3345 H6            1 RES     
   14147 H6        -332.2634  -173.0955   422.4340 H6            1 RES     
   14148 H6        -332.9823  -171.5094   420.6591 H6            1 RES     
   14149 H6        -334.6854  -171.5783   421.2362 H6            1 RES     
   14150 H6        -333.9748  -170.5235   423.4106 H6            1 RES     
   14151 H6        -333.4953  -169.5233   422.0033 H6            1 RES     
   14152 H6        -332.2541  -170.5289   422.8406 H6            1 RES     
   14153 C0        -326.1640  -186.0466   436.2981 C0            1 RES     
   14154 C0        -326.2702  -187.3760   437.0459 C0            1 RES     
   14155 C0        -327.4441  -187.9993   436.7840 C0            1 RES     
   14156 S1        -327.5849  -189.4908   437.5305 S1            1 RES     
   14157 C0        -326.0455  -189.3623   438.2486 C0            1 RES     
   14158 C0        -325.4367  -188.1647   437.8365 C0            1 RES     
   14159 C0        -328.1589  -187.2676   435.7959 C0            1 RES     
   14160 C0        -327.4410  -186.2192   435.4612 C0            1 RES     
   14161 C0        -327.9652  -185.5705   434.2738 C0            1 RES     
   14162 C0        -329.1050  -186.2210   433.8261 C0            1 RES     
   14163 S1        -329.6120  -187.6323   434.8298 S1            1 RES     
   14164 H2        -324.4188  -187.9336   438.0679 H2            1 RES     
   14165 H2        -327.4722  -184.7929   433.7162 H2            1 RES     
   14166 N3        -323.7538  -190.8280   440.8544 N3            1 RES     
   14167 C0        -324.3615  -189.9533   440.0029 C0            1 RES     
   14168 C0        -325.4065  -190.3595   439.1488 C0            1 RES     
   14169 C0        -325.8017  -191.7054   439.2242 C0            1 RES     
   14170 N3        -326.7878  -192.2615   438.4710 N3            1 RES     
   14171 S1        -326.7719  -193.8386   438.9683 S1            1 RES     
   14172 N3        -325.5757  -193.8841   440.1063 N3            1 RES     
   14173 C0        -325.1435  -192.5968   440.1131 C0            1 RES     
   14174 C0        -324.1164  -192.1379   440.9274 C0            1 RES     
   14175 H4        -324.0477  -188.9245   440.0170 H4            1 RES     
   14176 C5        -318.4394  -191.2409   439.5808 C5            1 RES     
   14177 C5        -319.4493  -190.9651   438.4658 C5            1 RES     
   14178 C5        -320.6177  -190.0616   438.8984 C5            1 RES     
   14179 C5        -320.1907  -188.6498   439.3461 C5            1 RES     
   14180 C5        -321.4245  -187.8047   439.7073 C5            1 RES     
   14181 C5        -321.0565  -186.4660   440.3628 C5            1 RES     
   14182 C5        -322.3020  -185.6582   440.7992 C5            1 RES     
   14183 C5        -323.0172  -184.8730   439.6559 C5            1 RES     
   14184 C5        -324.4958  -185.2678   439.3545 C5            1 RES     
   14185 C5        -325.4229  -185.0789   440.5906 C5            1 RES     
   14186 C5        -326.6732  -185.9763   440.5319 C5            1 RES     
   14187 C5        -327.2895  -186.1793   441.9326 C5            1 RES     
   14188 C5        -328.3513  -187.2937   441.9123 C5            1 RES     
   14189 C5        -328.7844  -187.7484   443.3176 C5            1 RES     
   14190 C5        -329.5127  -186.6727   444.1157 C5            1 RES     
   14191 C5        -324.9455  -184.4761   438.0834 C5            1 RES     
   14192 C0        -326.2288  -184.7381   437.2045 C0            1 RES     
   14193 C5        -326.3998  -183.4213   436.3295 C5            1 RES     
   14194 C5        -327.5177  -182.4453   436.8275 C5            1 RES     
   14195 C5        -328.9429  -182.7938   436.2849 C5            1 RES     
   14196 C5        -329.1949  -182.4455   434.7990 C5            1 RES     
   14197 C5        -330.5343  -182.9638   434.2443 C5            1 RES     
   14198 C5        -331.7915  -182.2442   434.7688 C5            1 RES     
   14199 C5        -331.8797  -180.7428   434.4193 C5            1 RES     
   14200 C5        -331.8761  -180.4645   432.9126 C5            1 RES     
   14201 C5        -327.1544  -180.9329   436.6541 C5            1 RES     
   14202 C5        -326.5417  -180.4895   435.3004 C5            1 RES     
   14203 C5        -326.4231  -178.9551   435.1592 C5            1 RES     
   14204 C5        -325.5449  -178.2879   436.2348 C5            1 RES     
   14205 C5        -325.4314  -176.7589   436.0692 C5            1 RES     
   14206 C5        -324.6644  -176.3352   434.8015 C5            1 RES     
   14207 C5        -324.5528  -174.8089   434.6355 C5            1 RES     
   14208 C5        -323.7502  -174.1259   435.7438 C5            1 RES     
   14209 H6        -317.9280  -190.3084   439.8946 H6            1 RES     
   14210 H6        -317.6639  -191.9440   439.2086 H6            1 RES     
   14211 H6        -318.9428  -191.7016   440.4571 H6            1 RES     
   14212 H6        -318.9245  -190.5135   437.5973 H6            1 RES     
   14213 H6        -319.8748  -191.9413   438.1433 H6            1 RES     
   14214 H6        -321.3129  -189.9718   438.0355 H6            1 RES     
   14215 H6        -321.1633  -190.5607   439.7295 H6            1 RES     
   14216 H6        -319.6186  -188.1444   438.5376 H6            1 RES     
   14217 H6        -319.5441  -188.7404   440.2441 H6            1 RES     
   14218 H6        -322.0456  -187.6429   438.8005 H6            1 RES     
   14219 H6        -322.0015  -188.3730   440.4629 H6            1 RES     
   14220 H6        -320.4833  -186.7162   441.2831 H6            1 RES     
   14221 H6        -320.4008  -185.8488   439.7116 H6            1 RES     
   14222 H6        -322.9723  -186.3368   441.3645 H6            1 RES     
   14223 H6        -321.9492  -184.8917   441.5215 H6            1 RES     
   14224 H6        -322.4174  -185.0231   438.7301 H6            1 RES     
   14225 H6        -322.9673  -183.7845   439.8758 H6            1 RES     
   14226 H6        -324.4137  -186.3159   439.1725 H6            1 RES     
   14227 H6        -324.8661  -185.4305   441.4760 H6            1 RES     
   14228 H6        -325.6652  -184.0126   440.7897 H6            1 RES     
   14229 H6        -327.4128  -185.5961   439.7959 H6            1 RES     
   14230 H6        -326.3379  -186.9834   440.2066 H6            1 RES     
   14231 H6        -327.7042  -185.2253   442.3232 H6            1 RES     
   14232 H6        -326.4811  -186.5192   442.6176 H6            1 RES     
   14233 H6        -329.2294  -186.9796   441.3092 H6            1 RES     
   14234 H6        -327.9026  -188.1909   441.4296 H6            1 RES     
   14235 H6        -327.8930  -188.0899   443.8898 H6            1 RES     
   14236 H6        -329.4683  -188.6178   443.2063 H6            1 RES     
   14237 H6        -330.4257  -186.3482   443.5743 H6            1 RES     
   14238 H6        -328.8549  -185.7989   444.2991 H6            1 RES     
   14239 H6        -329.8133  -187.0925   445.0998 H6            1 RES     
   14240 H6        -324.1126  -184.5194   437.3467 H6            1 RES     
   14241 H6        -324.9994  -183.4250   438.4516 H6            1 RES     
   14242 H6        -325.4354  -182.8714   436.3509 H6            1 RES     
   14243 H6        -326.4973  -183.6008   435.2498 H6            1 RES     
   14244 H6        -327.5841  -182.5798   437.9317 H6            1 RES     
   14245 H6        -329.1166  -183.8788   436.4533 H6            1 RES     
   14246 H6        -329.6962  -182.2382   436.8835 H6            1 RES     
   14247 H6        -329.1586  -181.3543   434.6369 H6            1 RES     
   14248 H6        -328.3979  -182.8977   434.1907 H6            1 RES     
   14249 H6        -330.5171  -182.8686   433.1383 H6            1 RES     
   14250 H6        -330.6203  -184.0463   434.4674 H6            1 RES     
   14251 H6        -331.8537  -182.3634   435.8703 H6            1 RES     
   14252 H6        -332.6790  -182.7490   434.3272 H6            1 RES     
   14253 H6        -331.0534  -180.1787   434.8982 H6            1 RES     
   14254 H6        -332.8339  -180.3529   434.8350 H6            1 RES     
   14255 H6        -332.7097  -181.0043   432.4148 H6            1 RES     
   14256 H6        -332.0058  -179.3757   432.7362 H6            1 RES     
   14257 H6        -330.9140  -180.7653   432.4498 H6            1 RES     
   14258 H6        -326.3899  -180.6924   437.4230 H6            1 RES     
   14259 H6        -328.0593  -180.3316   436.8903 H6            1 RES     
   14260 H6        -327.1429  -180.8244   434.4431 H6            1 RES     
   14261 H6        -325.5379  -180.9425   435.1755 H6            1 RES     
   14262 H6        -325.9929  -178.7602   434.1553 H6            1 RES     
   14263 H6        -327.4410  -178.5077   435.1922 H6            1 RES     
   14264 H6        -324.5283  -178.7371   436.2327 H6            1 RES     
   14265 H6        -326.0066  -178.4680   437.2280 H6            1 RES     
   14266 H6        -326.4485  -176.3087   436.0672 H6            1 RES     
   14267 H6        -324.8855  -176.3794   436.9577 H6            1 RES     
   14268 H6        -325.1955  -176.7137   433.9048 H6            1 RES     
   14269 H6        -323.6446  -176.7780   434.8174 H6            1 RES     
   14270 H6        -324.0377  -174.6068   433.6710 H6            1 RES     
   14271 H6        -325.5683  -174.3598   434.5844 H6            1 RES     
   14272 H6        -324.2505  -174.2319   436.7274 H6            1 RES     
   14273 H6        -323.6685  -173.0407   435.5218 H6            1 RES     
   14274 H6        -322.7271  -174.5539   435.7993 H6            1 RES     
   14275 C0        -320.3094  -194.3868   443.5326 C0            1 RES     
   14276 C0        -320.7449  -195.7908   443.9534 C0            1 RES     
   14277 C0        -322.0836  -195.9537   443.8245 C0            1 RES     
   14278 S1        -322.6052  -197.4957   444.2140 S1            1 RES     
   14279 C0        -321.0259  -198.0213   444.5765 C0            1 RES     
   14280 C0        -320.1183  -196.9773   444.3292 C0            1 RES     
   14281 C0        -322.6461  -194.7948   443.2218 C0            1 RES     
   14282 C0        -321.6753  -193.9406   442.9883 C0            1 RES     
   14283 C0        -322.1155  -192.8527   442.1348 C0            1 RES     
   14284 C0        -323.4574  -192.9958   441.8161 C0            1 RES     
   14285 S1        -324.2581  -194.4368   442.5502 S1            1 RES     
   14286 H2        -319.0596  -197.1200   444.3728 H2            1 RES     
   14287 H2        -321.4757  -192.1175   441.6779 H2            1 RES     
   14288 N3        -319.0093  -200.7677   446.1827 N3            1 RES     
   14289 C0        -319.4052  -199.5483   445.7186 C0            1 RES     
   14290 C0        -320.6346  -199.3757   445.0511 C0            1 RES     
   14291 C0        -321.4393  -200.5168   444.8972 C0            1 RES     
   14292 N3        -322.6494  -200.5273   444.2770 N3            1 RES     
   14293 S1        -323.0883  -202.1187   444.3755 S1            1 RES     
   14294 N3        -321.8280  -202.8297   445.1718 N3            1 RES     
   14295 C0        -320.9966  -201.7767   445.3815 C0            1 RES     
   14296 C0        -319.7720  -201.8844   446.0275 C0            1 RES     
   14297 H4        -318.7690  -198.7003   445.9014 H4            1 RES     
   14298 C5        -314.3673  -202.2668   443.6844 C5            1 RES     
   14299 C5        -315.3742  -201.4045   442.9217 C5            1 RES     
   14300 C5        -316.1037  -200.3768   443.8051 C5            1 RES     
   14301 C5        -315.1740  -199.3376   444.4621 C5            1 RES     
   14302 C5        -315.9938  -198.3239   445.2791 C5            1 RES     
   14303 C5        -315.1143  -197.3957   446.1288 C5            1 RES     
   14304 C5        -315.9468  -196.4350   447.0109 C5            1 RES     
   14305 C5        -316.5137  -195.1817   446.2740 C5            1 RES     
   14306 C5        -318.0663  -195.0385   446.2297 C5            1 RES     
   14307 C5        -318.6951  -194.9669   447.6519 C5            1 RES     
   14308 C5        -320.1675  -195.4183   447.6684 C5            1 RES     
   14309 C5        -320.6134  -195.8404   449.0848 C5            1 RES     
   14310 C5        -321.9766  -196.5544   449.0444 C5            1 RES     
   14311 C5        -322.3346  -197.2594   450.3651 C5            1 RES     
   14312 C5        -322.5449  -196.3050   451.5353 C5            1 RES     
   14313 C5        -318.4012  -193.8165   445.3136 C5            1 RES     
   14314 C0        -319.8085  -193.4379   444.7101 C0            1 RES     
   14315 C5        -319.6536  -191.9302   444.2285 C5            1 RES     
   14316 C5        -320.3028  -190.8696   445.1794 C5            1 RES     
   14317 C5        -321.8240  -190.6286   444.9058 C5            1 RES     
   14318 C5        -322.1518  -189.8046   443.6384 C5            1 RES     
   14319 C5        -323.6510  -189.7393   443.2944 C5            1 RES     
   14320 C5        -324.5114  -188.8816   444.2418 C5            1 RES     
   14321 C5        -324.1444  -187.3824   444.2818 C5            1 RES     
   14322 C5        -324.2599  -186.6881   442.9208 C5            1 RES     
   14323 C5        -319.4862  -189.5388   445.2868 C5            1 RES     
   14324 C5        -318.9573  -188.9098   443.9718 C5            1 RES     
   14325 C5        -318.3571  -187.4994   444.1699 C5            1 RES     
   14326 C5        -317.1657  -187.4513   445.1454 C5            1 RES     
   14327 C5        -316.5755  -186.0374   445.3203 C5            1 RES     
   14328 C5        -315.8972  -185.4948   444.0473 C5            1 RES     
   14329 C5        -315.3098  -184.0827   444.2216 C5            1 RES     
   14330 C5        -314.1790  -184.0085   445.2487 C5            1 RES     
   14331 H6        -313.5368  -201.6502   444.0839 H6            1 RES     
   14332 H6        -313.9295  -203.0185   442.9936 H6            1 RES     
   14333 H6        -314.8670  -202.8028   444.5191 H6            1 RES     
   14334 H6        -314.8566  -200.8851   442.0874 H6            1 RES     
   14335 H6        -316.1404  -202.0826   442.4845 H6            1 RES     
   14336 H6        -316.8433  -199.8468   443.1665 H6            1 RES     
   14337 H6        -316.6618  -200.9227   444.5976 H6            1 RES     
   14338 H6        -314.5860  -198.7999   443.6866 H6            1 RES     
   14339 H6        -314.4750  -199.8650   445.1448 H6            1 RES     
   14340 H6        -316.6466  -197.7360   444.5990 H6            1 RES     
   14341 H6        -316.6148  -198.9022   445.9910 H6            1 RES     
   14342 H6        -314.5336  -198.0549   446.8119 H6            1 RES     
   14343 H6        -314.3891  -196.8255   445.5093 H6            1 RES     
   14344 H6        -316.7181  -197.0320   447.5381 H6            1 RES     
   14345 H6        -315.2621  -196.0450   447.7937 H6            1 RES     
   14346 H6        -316.1339  -195.2166   445.2281 H6            1 RES     
   14347 H6        -316.0751  -194.2652   446.7249 H6            1 RES     
   14348 H6        -318.3631  -195.9662   445.7943 H6            1 RES     
   14349 H6        -318.1682  -195.7039   448.2819 H6            1 RES     
   14350 H6        -318.5393  -193.9825   448.1439 H6            1 RES     
   14351 H6        -320.8344  -194.6474   447.2277 H6            1 RES     
   14352 H6        -320.2346  -196.3378   447.0500 H6            1 RES     
   14353 H6        -320.6289  -194.9662   449.7704 H6            1 RES     
   14354 H6        -319.8760  -196.5788   449.4712 H6            1 RES     
   14355 H6        -322.7760  -195.8439   448.7452 H6            1 RES     
   14356 H6        -321.9235  -197.3594   448.2773 H6            1 RES     
   14357 H6        -321.5360  -197.9896   450.6258 H6            1 RES     
   14358 H6        -323.2766  -197.8292   450.2108 H6            1 RES     
   14359 H6        -323.3649  -195.5933   451.3046 H6            1 RES     
   14360 H6        -321.6156  -195.7451   451.7647 H6            1 RES     
   14361 H6        -322.8267  -196.8921   452.4359 H6            1 RES     
   14362 H6        -317.7419  -193.8747   444.4191 H6            1 RES     
   14363 H6        -318.0510  -192.9484   445.9195 H6            1 RES     
   14364 H6        -318.5686  -191.7052   444.1600 H6            1 RES     
   14365 H6        -319.9556  -191.7510   443.1874 H6            1 RES     
   14366 H6        -320.2546  -191.2971   446.2074 H6            1 RES     
   14367 H6        -322.3225  -191.6206   444.8508 H6            1 RES     
   14368 H6        -322.2583  -190.0841   445.7715 H6            1 RES     
   14369 H6        -321.7785  -188.7701   443.7318 H6            1 RES     
   14370 H6        -321.6437  -190.2640   442.7779 H6            1 RES     
   14371 H6        -323.7584  -189.3335   442.2666 H6            1 RES     
   14372 H6        -324.0592  -190.7698   443.2720 H6            1 RES     
   14373 H6        -324.4545  -189.2954   445.2699 H6            1 RES     
   14374 H6        -325.5687  -188.9642   443.9061 H6            1 RES     
   14375 H6        -323.1192  -187.2393   444.6803 H6            1 RES     
   14376 H6        -324.8468  -186.8794   444.9809 H6            1 RES     
   14377 H6        -325.2864  -186.8014   442.5116 H6            1 RES     
   14378 H6        -324.0442  -185.6049   443.0374 H6            1 RES     
   14379 H6        -323.5271  -187.0982   442.1960 H6            1 RES     
   14380 H6        -318.5854  -189.7590   445.8980 H6            1 RES     
   14381 H6        -320.0977  -188.8039   445.8544 H6            1 RES     
   14382 H6        -319.7494  -188.7959   443.2181 H6            1 RES     
   14383 H6        -318.1887  -189.5694   443.5218 H6            1 RES     
   14384 H6        -318.0319  -187.1485   443.1689 H6            1 RES     
   14385 H6        -319.1536  -186.8139   444.5349 H6            1 RES     
   14386 H6        -316.3667  -188.1471   444.8094 H6            1 RES     
   14387 H6        -317.5169  -187.7767   446.1468 H6            1 RES     
   14388 H6        -317.3752  -185.3393   445.6525 H6            1 RES     
   14389 H6        -315.8158  -186.1041   446.1263 H6            1 RES     
   14390 H6        -316.6440  -185.4290   443.2304 H6            1 RES     
   14391 H6        -315.0906  -186.1909   443.7292 H6            1 RES     
   14392 H6        -314.8974  -183.7606   443.2404 H6            1 RES     
   14393 H6        -316.1152  -183.3717   444.5069 H6            1 RES     
   14394 H6        -314.5430  -184.2525   446.2670 H6            1 RES     
   14395 H6        -313.7738  -182.9747   445.2737 H6            1 RES     
   14396 H6        -313.3589  -184.7036   444.9708 H6            1 RES     
   14397 C0        -316.6019  -205.7726   447.1089 C0            1 RES     
   14398 C0        -317.4151  -207.0564   447.2772 C0            1 RES     
   14399 C0        -318.7360  -206.7911   447.4188 C0            1 RES     
   14400 S1        -319.6798  -208.1678   447.5445 S1            1 RES     
   14401 C0        -318.3301  -209.1983   447.4089 C0            1 RES     
   14402 C0        -317.1716  -208.4270   447.2144 C0            1 RES     
   14403 C0        -318.9606  -205.3975   447.2460 C0            1 RES     
   14404 C0        -317.8042  -204.8214   447.0060 C0            1 RES     
   14405 C0        -317.9735  -203.4536   446.5519 C0            1 RES     
   14406 C0        -319.3175  -203.1138   446.5193 C0            1 RES     
   14407 S1        -320.4396  -204.4204   447.0575 S1            1 RES     
   14408 H2        -316.2254  -208.8679   446.9838 H2            1 RES     
   14409 H2        -317.1967  -202.8279   446.1473 H2            1 RES     
   14410 N3        -317.1353  -212.7455   447.8325 N3            1 RES     
   14411 C0        -317.1650  -211.3838   447.7675 C0            1 RES     
   14412 C0        -318.3481  -210.6851   447.4534 C0            1 RES     
   14413 C0        -319.4991  -211.4566   447.2226 C0            1 RES     
   14414 N3        -320.7184  -210.9445   446.9060 N3            1 RES     
   14415 S1        -321.6421  -212.3044   446.7264 S1            1 RES     
   14416 N3        -320.5908  -213.5416   447.0297 N3            1 RES     
   14417 C0        -319.4363  -212.8744   447.2867 C0            1 RES     
   14418 C0        -318.2392  -213.5062   447.5968 C0            1 RES     
   14419 H4        -316.2644  -210.8413   447.9951 H4            1 RES     
   14420 C5        -313.6529  -214.6898   444.0737 C5            1 RES     
   14421 C5        -314.4130  -213.3953   443.7804 C5            1 RES     
   14422 C5        -314.6285  -212.5095   445.0203 C5            1 RES     
   14423 C5        -313.3242  -212.0134   445.6751 C5            1 RES     
   14424 C5        -313.6379  -211.0955   446.8693 C5            1 RES     
   14425 C5        -312.3903  -210.7432   447.6917 C5            1 RES     
   14426 C5        -312.7244  -209.8891   448.9379 C5            1 RES     
   14427 C5        -312.9405  -208.3686   448.6613 C5            1 RES     
   14428 C5        -314.3475  -207.7882   449.0026 C5            1 RES     
   14429 C5        -314.7109  -207.9621   450.5062 C5            1 RES     
   14430 C5        -316.2319  -207.9655   450.7481 C5            1 RES     
   14431 C5        -316.5894  -208.6403   452.0898 C5            1 RES     
   14432 C5        -318.1037  -208.8978   452.1919 C5            1 RES     
   14433 C5        -318.4864  -209.8280   453.3571 C5            1 RES     
   14434 C5        -318.2018  -209.2390   454.7343 C5            1 RES     
   14435 C5        -314.3828  -206.3092   448.4970 C5            1 RES     
   14436 C0        -315.6545  -205.3908   448.3316 C0            1 RES     
   14437 C5        -315.0772  -203.9155   448.1932 C5            1 RES     
   14438 C5        -315.1974  -203.0418   449.4866 C5            1 RES     
   14439 C5        -316.5749  -202.3137   449.6268 C5            1 RES     
   14440 C5        -316.7849  -201.0976   448.6942 C5            1 RES     
   14441 C5        -318.2099  -200.5157   448.7218 C5            1 RES     
   14442 C5        -318.5951  -199.7671   450.0121 C5            1 RES     
   14443 C5        -317.7495  -198.5118   450.3174 C5            1 RES     
   14444 C5        -317.8176  -197.4465   449.2182 C5            1 RES     
   14445 C5        -313.9789  -202.0866   449.7150 C5            1 RES     
   14446 C5        -313.4612  -201.2756   448.4990 C5            1 RES     
   14447 C5        -312.4054  -200.2133   448.8806 C5            1 RES     
   14448 C5        -311.1413  -200.7898   449.5461 C5            1 RES     
   14449 C5        -310.0970  -199.7147   449.9088 C5            1 RES     
   14450 C5        -309.4626  -199.0371   448.6786 C5            1 RES     
   14451 C5        -308.4215  -197.9626   449.0409 C5            1 RES     
   14452 C5        -307.1980  -198.5134   449.7751 C5            1 RES     
   14453 H6        -312.6176  -214.4767   444.4084 H6            1 RES     
   14454 H6        -313.5909  -215.2978   443.1460 H6            1 RES     
   14455 H6        -314.1799  -215.2834   444.8506 H6            1 RES     
   14456 H6        -313.8747  -212.8221   442.9960 H6            1 RES     
   14457 H6        -315.4140  -213.6718   443.3811 H6            1 RES     
   14458 H6        -315.2320  -211.6302   444.7067 H6            1 RES     
   14459 H6        -315.2191  -213.0834   445.7682 H6            1 RES     
   14460 H6        -312.7059  -211.4604   444.9346 H6            1 RES     
   14461 H6        -312.7514  -212.8917   446.0402 H6            1 RES     
   14462 H6        -314.1471  -210.1756   446.5104 H6            1 RES     
   14463 H6        -314.3093  -211.6577   447.5475 H6            1 RES     
   14464 H6        -311.9716  -211.7087   448.0530 H6            1 RES     
   14465 H6        -311.6114  -210.2447   447.0755 H6            1 RES     
   14466 H6        -313.5681  -210.3722   449.4709 H6            1 RES     
   14467 H6        -311.8464  -209.9543   449.6152 H6            1 RES     
   14468 H6        -312.7444  -208.2012   447.5783 H6            1 RES     
   14469 H6        -312.1640  -207.7863   449.2031 H6            1 RES     
   14470 H6        -314.9934  -208.4252   448.4409 H6            1 RES     
   14471 H6        -314.3757  -208.9682   450.8113 H6            1 RES     
   14472 H6        -314.1699  -207.2502   451.1664 H6            1 RES     
   14473 H6        -316.6600  -206.9445   450.6615 H6            1 RES     
   14474 H6        -316.6864  -208.6060   449.9635 H6            1 RES     
   14475 H6        -316.2176  -208.0377   452.9459 H6            1 RES     
   14476 H6        -316.0925  -209.6357   452.1166 H6            1 RES     
   14477 H6        -318.6555  -207.9361   452.2549 H6            1 RES     
   14478 H6        -318.4289  -209.4239   451.2663 H6            1 RES     
   14479 H6        -317.9474  -210.7962   453.2532 H6            1 RES     
   14480 H6        -319.5759  -210.0386   453.2903 H6            1 RES     
   14481 H6        -318.7629  -208.2904   454.8669 H6            1 RES     
   14482 H6        -317.1169  -209.0556   454.8727 H6            1 RES     
   14483 H6        -318.5333  -209.9599   455.5124 H6            1 RES     
   14484 H6        -313.9125  -206.2859   447.4887 H6            1 RES     
   14485 H6        -313.6831  -205.7915   449.1939 H6            1 RES     
   14486 H6        -313.9999  -203.9949   447.9366 H6            1 RES     
   14487 H6        -315.4454  -203.3621   447.3183 H6            1 RES     
   14488 H6        -315.1502  -203.7469   450.3483 H6            1 RES     
   14489 H6        -317.3768  -203.0641   449.4554 H6            1 RES     
   14490 H6        -316.6779  -201.9473   450.6706 H6            1 RES     
   14491 H6        -316.0802  -200.2844   448.9401 H6            1 RES     
   14492 H6        -316.5840  -201.4085   447.6585 H6            1 RES     
   14493 H6        -318.3196  -199.8139   447.8686 H6            1 RES     
   14494 H6        -318.9359  -201.3362   448.5519 H6            1 RES     
   14495 H6        -318.5352  -200.4622   450.8751 H6            1 RES     
   14496 H6        -319.6558  -199.4471   449.9134 H6            1 RES     
   14497 H6        -316.6898  -198.7860   450.4968 H6            1 RES     
   14498 H6        -318.1397  -198.0591   451.2544 H6            1 RES     
   14499 H6        -318.8702  -197.1417   449.0359 H6            1 RES     
   14500 H6        -317.2406  -196.5513   449.5329 H6            1 RES     
   14501 H6        -317.3718  -197.8153   448.2718 H6            1 RES     
   14502 H6        -313.1260  -202.7200   450.0389 H6            1 RES     
   14503 H6        -314.2258  -201.4091   450.5614 H6            1 RES     
   14504 H6        -314.2679  -200.7282   447.9911 H6            1 RES     
   14505 H6        -313.0262  -201.9630   447.7461 H6            1 RES     
   14506 H6        -312.1259  -199.6912   447.9424 H6            1 RES     
   14507 H6        -312.8697  -199.4697   449.5653 H6            1 RES     
   14508 H6        -310.6740  -201.5521   448.8858 H6            1 RES     
   14509 H6        -311.4365  -201.2816   450.4964 H6            1 RES     
   14510 H6        -310.5646  -198.9491   450.5663 H6            1 RES     
   14511 H6        -309.2973  -200.2252   450.4845 H6            1 RES     
   14512 H6        -310.2519  -198.5279   448.0895 H6            1 RES     
   14513 H6        -308.9858  -199.8070   448.0335 H6            1 RES     
   14514 H6        -308.0675  -197.4971   448.0952 H6            1 RES     
   14515 H6        -308.8968  -197.1699   449.6583 H6            1 RES     
   14516 H6        -307.4758  -198.9320   450.7633 H6            1 RES     
   14517 H6        -306.4734  -197.6898   449.9489 H6            1 RES     
   14518 H6        -306.7026  -199.2979   449.1651 H6            1 RES     
   14519 C0        -316.4208  -218.2676   446.9974 C0            1 RES     
   14520 C0        -317.5819  -219.2616   447.0399 C0            1 RES     
   14521 C0        -318.7062  -218.6891   447.5334 C0            1 RES     
   14522 S1        -320.0259  -219.7187   447.5434 S1            1 RES     
   14523 C0        -319.1279  -221.0004   446.8704 C0            1 RES     
   14524 C0        -317.8185  -220.5643   446.6056 C0            1 RES     
   14525 C0        -318.4774  -217.3017   447.7461 C0            1 RES     
   14526 C0        -317.2412  -217.0301   447.3931 C0            1 RES     
   14527 C0        -317.0088  -215.5996   447.3211 C0            1 RES     
   14528 C0        -318.1542  -214.9015   447.6724 C0            1 RES     
   14529 S1        -319.5593  -215.9377   448.1291 S1            1 RES     
   14530 H2        -317.1145  -221.1659   446.0713 H2            1 RES     
   14531 H2        -316.1332  -215.1277   446.9096 H2            1 RES     
   14532 N3        -319.1313  -224.7023   446.1735 N3            1 RES     
   14533 C0        -318.7161  -223.4304   446.4367 C0            1 RES     
   14534 C0        -319.6319  -222.3672   446.5693 C0            1 RES     
   14535 C0        -320.9941  -222.6811   446.4301 C0            1 RES     
   14536 N3        -322.0059  -221.7776   446.5249 N3            1 RES     
   14537 S1        -323.3441  -222.7082   446.2455 S1            1 RES     
   14538 N3        -322.7314  -224.2233   446.0066 N3            1 RES     
   14539 C0        -321.3971  -224.0133   446.1455 C0            1 RES     
   14540 C0        -320.4465  -225.0181   446.0215 C0            1 RES     
   14541 H4        -317.6641  -223.2544   446.5759 H4            1 RES     
   14542 C5        -317.0551  -226.3585   441.3795 C5            1 RES     
   14543 C5        -317.3756  -224.8759   441.5756 C5            1 RES     
   14544 C5        -317.1088  -224.3685   443.0039 C5            1 RES     
   14545 C5        -315.6356  -224.4735   443.4453 C5            1 RES     
   14546 C5        -315.4562  -223.8959   444.8599 C5            1 RES     
   14547 C5        -314.0601  -224.1653   445.4390 C5            1 RES     
   14548 C5        -313.9136  -223.6555   446.8926 C5            1 RES     
   14549 C5        -313.6493  -222.1241   447.0347 C5            1 RES     
   14550 C5        -314.7214  -221.2979   447.8101 C5            1 RES     
   14551 C5        -314.9073  -221.7946   449.2736 C5            1 RES     
   14552 C5        -316.2933  -221.4408   449.8442 C5            1 RES     
   14553 C5        -316.6627  -222.3497   451.0362 C5            1 RES     
   14554 C5        -318.1464  -222.1891   451.4138 C5            1 RES     
   14555 C5        -318.6488  -223.2725   452.3849 C5            1 RES     
   14556 C5        -317.9947  -223.2172   453.7610 C5            1 RES     
   14557 C5        -314.3343  -219.7882   447.6852 C5            1 RES     
   14558 C0        -315.2389  -218.5429   448.0297 C0            1 RES     
   14559 C5        -314.2302  -217.3164   448.1134 C5            1 RES     
   14560 C5        -313.8710  -216.8626   449.5678 C5            1 RES     
   14561 C5        -314.8946  -215.8509   450.1808 C5            1 RES     
   14562 C5        -314.8176  -214.4075   449.6300 C5            1 RES     
   14563 C5        -315.9500  -213.4830   450.1130 C5            1 RES     
   14564 C5        -315.8799  -213.0681   451.5951 C5            1 RES     
   14565 C5        -314.6317  -212.2479   451.9865 C5            1 RES     
   14566 C5        -314.4958  -210.9334   451.2110 C5            1 RES     
   14567 C5        -312.3853  -216.3991   449.7325 C5            1 RES     
   14568 C5        -311.8036  -215.4476   448.6551 C5            1 RES     
   14569 C5        -310.4127  -214.8853   449.0263 C5            1 RES     
   14570 C5        -309.3315  -215.9624   449.2364 C5            1 RES     
   14571 C5        -307.9496  -215.3796   449.5953 C5            1 RES     
   14572 C5        -307.3054  -214.5786   448.4471 C5            1 RES     
   14573 C5        -305.9269  -213.9954   448.8062 C5            1 RES     
   14574 C5        -304.8654  -215.0577   449.0963 C5            1 RES     
   14575 H6        -315.9716  -226.5528   441.5127 H6            1 RES     
   14576 H6        -317.3291  -226.6601   440.3460 H6            1 RES     
   14577 H6        -317.6348  -226.9802   442.0944 H6            1 RES     
   14578 H6        -316.7932  -224.2739   440.8462 H6            1 RES     
   14579 H6        -318.4571  -224.7302   441.3588 H6            1 RES     
   14580 H6        -317.4239  -223.3034   443.0485 H6            1 RES     
   14581 H6        -317.7454  -224.9458   443.7103 H6            1 RES     
   14582 H6        -314.9792  -223.9253   442.7347 H6            1 RES     
   14583 H6        -315.3416  -225.5441   443.4564 H6            1 RES     
   14584 H6        -315.6762  -222.8069   444.8499 H6            1 RES     
   14585 H6        -316.1740  -224.4194   445.5214 H6            1 RES     
   14586 H6        -313.9394  -225.2713   445.4610 H6            1 RES     
   14587 H6        -313.2545  -223.7484   444.7972 H6            1 RES     
   14588 H6        -314.7862  -224.0157   447.4740 H6            1 RES     
   14589 H6        -313.0213  -224.1601   447.3202 H6            1 RES     
   14590 H6        -313.5627  -221.7094   446.0053 H6            1 RES     
   14591 H6        -312.6557  -221.9688   447.5082 H6            1 RES     
   14592 H6        -315.6140  -221.5341   447.2755 H6            1 RES     
   14593 H6        -314.8857  -222.8977   449.2517 H6            1 RES     
   14594 H6        -314.0737  -221.4893   449.9425 H6            1 RES     
   14595 H6        -316.3659  -220.3619   450.0972 H6            1 RES     
   14596 H6        -317.0398  -221.6688   449.0548 H6            1 RES     
   14597 H6        -315.9958  -222.1540   451.9030 H6            1 RES     
   14598 H6        -316.5257  -223.4069   450.7172 H6            1 RES     
   14599 H6        -318.3331  -221.1734   451.8222 H6            1 RES     
   14600 H6        -318.7541  -222.3076   450.4886 H6            1 RES     
   14601 H6        -318.4818  -224.2786   451.9391 H6            1 RES     
   14602 H6        -319.7444  -223.1391   452.5179 H6            1 RES     
   14603 H6        -318.1846  -222.2314   454.2344 H6            1 RES     
   14604 H6        -316.9024  -223.3953   453.6903 H6            1 RES     
   14605 H6        -318.4340  -224.0106   454.4033 H6            1 RES     
   14606 H6        -314.0293  -219.6042   446.6309 H6            1 RES     
   14607 H6        -313.4120  -219.7158   448.3077 H6            1 RES     
   14608 H6        -313.2876  -217.6168   447.6094 H6            1 RES     
   14609 H6        -314.5126  -216.4511   447.4979 H6            1 RES     
   14610 H6        -313.9401  -217.7724   450.2076 H6            1 RES     
   14611 H6        -315.9158  -216.2610   450.0241 H6            1 RES     
   14612 H6        -314.7228  -215.7925   451.2769 H6            1 RES     
   14613 H6        -313.8559  -213.9343   449.8937 H6            1 RES     
   14614 H6        -314.8787  -214.4450   448.5325 H6            1 RES     
   14615 H6        -315.9390  -212.5610   449.4946 H6            1 RES     
   14616 H6        -316.9233  -213.9790   449.9242 H6            1 RES     
   14617 H6        -315.9337  -213.9727   452.2355 H6            1 RES     
   14618 H6        -316.7770  -212.4484   451.8155 H6            1 RES     
   14619 H6        -313.7090  -212.8489   451.8536 H6            1 RES     
   14620 H6        -314.7141  -211.9986   453.0665 H6            1 RES     
   14621 H6        -315.4020  -210.3055   451.3469 H6            1 RES     
   14622 H6        -313.6162  -210.3697   451.5878 H6            1 RES     
   14623 H6        -314.3350  -211.1189   450.1292 H6            1 RES     
   14624 H6        -311.7545  -217.3126   449.6988 H6            1 RES     
   14625 H6        -312.2721  -215.9581   450.7469 H6            1 RES     
   14626 H6        -312.4457  -214.5718   448.4842 H6            1 RES     
   14627 H6        -311.7316  -215.9778   447.6844 H6            1 RES     
   14628 H6        -310.1102  -214.2121   448.1979 H6            1 RES     
   14629 H6        -310.5030  -214.2754   449.9522 H6            1 RES     
   14630 H6        -309.2412  -216.5972   448.3285 H6            1 RES     
   14631 H6        -309.6369  -216.6069   450.0869 H6            1 RES     
   14632 H6        -308.0396  -214.7407   450.5013 H6            1 RES     
   14633 H6        -307.2924  -216.2394   449.8405 H6            1 RES     
   14634 H6        -307.9553  -213.7189   448.1865 H6            1 RES     
   14635 H6        -307.2067  -215.2276   447.5496 H6            1 RES     
   14636 H6        -305.5747  -213.3927   447.9406 H6            1 RES     
   14637 H6        -306.0206  -213.3179   449.6824 H6            1 RES     
   14638 H6        -305.1249  -215.6513   449.9959 H6            1 RES     
   14639 H6        -303.8917  -214.5596   449.2899 H6            1 RES     
   14640 H6        -304.7492  -215.7355   448.2246 H6            1 RES     
   14641 C0        -320.4146  -229.7057   443.9330 C0            1 RES     
   14642 C0        -321.8217  -230.3001   444.0026 C0            1 RES     
   14643 C0        -322.6113  -229.6052   444.8563 C0            1 RES     
   14644 S1        -324.1827  -230.1780   444.9226 S1            1 RES     
   14645 C0        -323.8648  -231.4050   443.7844 C0            1 RES     
   14646 C0        -322.5357  -231.2971   443.3408 C0            1 RES     
   14647 C0        -321.9075  -228.4637   445.3299 C0            1 RES     
   14648 C0        -320.7137  -228.4598   444.7810 C0            1 RES     
   14649 C0        -320.0322  -227.1967   444.9947 C0            1 RES     
   14650 C0        -320.8198  -226.3394   445.7481 C0            1 RES     
   14651 S1        -322.4103  -227.0249   446.2545 S1            1 RES     
   14652 H2        -322.1535  -231.8885   442.5363 H2            1 RES     
   14653 H2        -319.1165  -226.8912   444.5184 H2            1 RES     
   14654 N3        -325.1943  -234.5834   442.2614 N3            1 RES     
   14655 C0        -324.3479  -233.6147   442.7138 C0            1 RES     
   14656 C0        -324.8308  -232.4243   443.2938 C0            1 RES     
   14657 C0        -326.2251  -232.2874   443.3957 C0            1 RES     
   14658 N3        -326.8558  -231.2049   443.9244 N3            1 RES     
   14659 S1        -328.4522  -231.5973   443.7442 S1            1 RES     
   14660 N3        -328.4170  -233.0844   443.0264 N3            1 RES     
   14661 C0        -327.0831  -233.3084   442.9062 C0            1 RES     
   14662 C0        -326.5473  -234.4577   442.3401 C0            1 RES     
   14663 H4        -323.2886  -233.7904   442.6496 H4            1 RES     
   14664 C5        -324.4794  -235.2780   436.8722 C5            1 RES     
   14665 C5        -324.2588  -233.8903   437.4762 C5            1 RES     
   14666 C5        -323.6412  -233.9196   438.8856 C5            1 RES     
   14667 C5        -322.2400  -234.5589   438.9467 C5            1 RES     
   14668 C5        -321.6825  -234.4954   440.3793 C5            1 RES     
   14669 C5        -320.3884  -235.3037   440.5497 C5            1 RES     
   14670 C5        -319.8787  -235.3043   442.0106 C5            1 RES     
   14671 C5        -319.1040  -234.0206   442.4432 C5            1 RES     
   14672 C5        -319.7211  -233.1909   443.6111 C5            1 RES     
   14673 C5        -319.8542  -234.0209   444.9212 C5            1 RES     
   14674 C5        -320.9497  -233.4748   445.8559 C5            1 RES     
   14675 C5        -321.4288  -234.5504   446.8543 C5            1 RES     
   14676 C5        -322.7066  -234.0968   447.5832 C5            1 RES     
   14677 C5        -323.3987  -235.2300   448.3619 C5            1 RES     
   14678 C5        -322.5773  -235.7661   449.5291 C5            1 RES     
   14679 C5        -318.8765  -231.8834   443.7583 C5            1 RES     
   14680 C0        -319.2588  -230.5917   444.5788 C0            1 RES     
   14681 C5        -317.8990  -229.7789   444.7172 C5            1 RES     
   14682 C5        -317.2094  -229.8908   446.1180 C5            1 RES     
   14683 C5        -317.7425  -228.8576   447.1647 C5            1 RES     
   14684 C5        -317.2689  -227.3989   446.9635 C5            1 RES     
   14685 C5        -317.9506  -226.3769   447.8913 C5            1 RES     
   14686 C5        -317.5397  -226.4511   449.3743 C5            1 RES     
   14687 C5        -316.0482  -226.1671   449.6550 C5            1 RES     
   14688 C5        -315.5939  -224.7770   449.1978 C5            1 RES     
   14689 C5        -315.6465  -229.9331   446.0473 C5            1 RES     
   14690 C5        -314.9392  -228.9118   445.1194 C5            1 RES     
   14691 C5        -313.4030  -228.8976   445.2886 C5            1 RES     
   14692 C5        -312.7224  -230.2475   444.9921 C5            1 RES     
   14693 C5        -311.1897  -230.2085   445.1565 C5            1 RES     
   14694 C5        -310.4839  -229.3216   444.1123 C5            1 RES     
   14695 C5        -308.9540  -229.2813   444.2777 C5            1 RES     
   14696 C5        -308.2757  -230.6355   444.0650 C5            1 RES     
   14697 H6        -323.5145  -235.7993   436.7087 H6            1 RES     
   14698 H6        -324.9800  -235.1742   435.8860 H6            1 RES     
   14699 H6        -325.1262  -235.8925   437.5339 H6            1 RES     
   14700 H6        -323.6179  -233.2904   436.7957 H6            1 RES     
   14701 H6        -325.2497  -233.3896   437.5488 H6            1 RES     
   14702 H6        -323.5754  -232.8705   439.2476 H6            1 RES     
   14703 H6        -324.3276  -234.4749   439.5623 H6            1 RES     
   14704 H6        -321.5452  -234.0345   438.2548 H6            1 RES     
   14705 H6        -322.3195  -235.6233   438.6410 H6            1 RES     
   14706 H6        -321.5277  -233.4353   440.6738 H6            1 RES     
   14707 H6        -322.4331  -234.9656   441.0444 H6            1 RES     
   14708 H6        -320.6398  -236.3548   440.2850 H6            1 RES     
   14709 H6        -319.5885  -234.9614   439.8584 H6            1 RES     
   14710 H6        -320.7308  -235.5583   442.6730 H6            1 RES     
   14711 H6        -319.1539  -236.1416   442.0963 H6            1 RES     
   14712 H6        -319.0299  -233.3647   441.5468 H6            1 RES     
   14713 H6        -318.0592  -234.2966   442.7036 H6            1 RES     
   14714 H6        -320.7072  -232.9994   443.2513 H6            1 RES     
   14715 H6        -320.2033  -235.0287   444.6381 H6            1 RES     
   14716 H6        -318.8816  -234.1720   445.4375 H6            1 RES     
   14717 H6        -320.6239  -232.5423   446.3635 H6            1 RES     
   14718 H6        -321.8325  -233.2422   445.2241 H6            1 RES     
   14719 H6        -320.6202  -234.8127   447.5697 H6            1 RES     
   14720 H6        -321.6967  -235.4618   446.2748 H6            1 RES     
   14721 H6        -322.4865  -233.2356   448.2488 H6            1 RES     
   14722 H6        -323.4426  -233.7636   446.8173 H6            1 RES     
   14723 H6        -323.6394  -236.0660   447.6676 H6            1 RES     
   14724 H6        -324.3578  -234.8390   448.7657 H6            1 RES     
   14725 H6        -322.3609  -234.9502   450.2499 H6            1 RES     
   14726 H6        -321.6274  -236.2153   449.1746 H6            1 RES     
   14727 H6        -323.1604  -236.5556   450.0503 H6            1 RES     
   14728 H6        -318.6787  -231.4925   442.7354 H6            1 RES     
   14729 H6        -317.9049  -232.2588   444.1563 H6            1 RES     
   14730 H6        -317.1900  -230.1710   443.9580 H6            1 RES     
   14731 H6        -317.9615  -228.7285   444.4007 H6            1 RES     
   14732 H6        -317.4861  -230.8901   446.5263 H6            1 RES     
   14733 H6        -318.8532  -228.8995   447.1507 H6            1 RES     
   14734 H6        -317.4091  -229.1733   448.1764 H6            1 RES     
   14735 H6        -316.1777  -227.3141   447.1068 H6            1 RES     
   14736 H6        -317.4921  -227.0949   445.9303 H6            1 RES     
   14737 H6        -317.7210  -225.3564   447.5192 H6            1 RES     
   14738 H6        -319.0497  -226.5013   447.8162 H6            1 RES     
   14739 H6        -317.8004  -227.4502   449.7810 H6            1 RES     
   14740 H6        -318.1400  -225.6970   449.9296 H6            1 RES     
   14741 H6        -315.4056  -226.9369   449.1810 H6            1 RES     
   14742 H6        -315.8909  -226.2321   450.7533 H6            1 RES     
   14743 H6        -316.2118  -223.9881   449.6771 H6            1 RES     
   14744 H6        -314.5335  -224.6193   449.4877 H6            1 RES     
   14745 H6        -315.6571  -224.6752   448.0950 H6            1 RES     
   14746 H6        -315.3660  -230.9355   445.6600 H6            1 RES     
   14747 H6        -315.2523  -229.8588   447.0844 H6            1 RES     
   14748 H6        -315.2714  -227.8808   445.3070 H6            1 RES     
   14749 H6        -315.1840  -229.1326   444.0612 H6            1 RES     
   14750 H6        -313.0135  -228.1250   444.5941 H6            1 RES     
   14751 H6        -313.1550  -228.5858   446.3271 H6            1 RES     
   14752 H6        -312.9762  -230.5875   443.9648 H6            1 RES     
   14753 H6        -313.1020  -230.9996   445.7150 H6            1 RES     
   14754 H6        -310.9345  -229.8644   446.1830 H6            1 RES     
   14755 H6        -310.8276  -231.2509   445.0395 H6            1 RES     
   14756 H6        -310.8413  -228.2769   444.2131 H6            1 RES     
   14757 H6        -310.7330  -229.6799   443.0896 H6            1 RES     
   14758 H6        -308.5468  -228.5762   443.5204 H6            1 RES     
   14759 H6        -308.6937  -228.8921   445.2858 H6            1 RES     
   14760 H6        -308.5887  -231.3683   444.8356 H6            1 RES     
   14761 H6        -307.1750  -230.5107   444.1450 H6            1 RES     
   14762 H6        -308.5145  -231.0326   443.0558 H6            1 RES     
   14763 C0        -328.3662  -238.1398   439.2626 C0            1 RES     
   14764 C0        -329.8663  -238.3077   439.5066 C0            1 RES     
   14765 C0        -330.2525  -237.7003   440.6543 C0            1 RES     
   14766 S1        -331.8991  -237.8014   440.9372 S1            1 RES     
   14767 C0        -332.1694  -238.6791   439.5024 C0            1 RES     
   14768 C0        -330.9560  -238.8245   438.8086 C0            1 RES     
   14769 C0        -329.1507  -236.9936   441.2103 C0            1 RES     
   14770 C0        -328.1127  -237.1651   440.4231 C0            1 RES     
   14771 C0        -327.0278  -236.2648   440.7667 C0            1 RES     
   14772 C0        -327.3724  -235.4803   441.8569 C0            1 RES     
   14773 S1        -329.0126  -235.8078   442.5342 S1            1 RES     
   14774 H2        -330.9085  -239.2370   437.8235 H2            1 RES     
   14775 H2        -326.1390  -236.1038   440.1813 H2            1 RES     
   14776 N3        -334.6781  -240.7645   437.6189 N3            1 RES     
   14777 C0        -333.5036  -240.2496   438.0825 C0            1 RES     
   14778 C0        -333.4776  -239.1956   439.0179 C0            1 RES     
   14779 C0        -334.7186  -238.7082   439.4603 C0            1 RES     
   14780 N3        -334.8735  -237.6962   440.3553 N3            1 RES     
   14781 S1        -336.5182  -237.5532   440.4528 S1            1 RES     
   14782 N3        -337.0796  -238.7121   439.4186 N3            1 RES     
   14783 C0        -335.9265  -239.2568   438.9521 C0            1 RES     
   14784 C0        -335.8874  -240.2922   438.0276 C0            1 RES     
   14785 H4        -332.5828  -240.6892   437.7421 H4            1 RES     
   14786 C5        -334.9973  -240.0234   432.1981 C5            1 RES     
   14787 C5        -334.2463  -238.9938   433.0438 C5            1 RES     
   14788 C5        -333.4823  -239.6066   434.2310 C5            1 RES     
   14789 C5        -332.3788  -240.6029   433.8239 C5            1 RES     
   14790 C5        -331.6369  -241.1208   435.0682 C5            1 RES     
   14791 C5        -330.6741  -242.2733   434.7491 C5            1 RES     
   14792 C5        -329.9939  -242.8447   436.0160 C5            1 RES     
   14793 C5        -328.7846  -242.0159   436.5505 C5            1 RES     
   14794 C5        -328.9211  -241.4258   437.9880 C5            1 RES     
   14795 C5        -329.1371  -242.5304   439.0633 C5            1 RES     
   14796 C5        -329.8467  -241.9967   440.3217 C5            1 RES     
   14797 C5        -330.5106  -243.1372   441.1228 C5            1 RES     
   14798 C5        -331.4499  -242.5766   442.2060 C5            1 RES     
   14799 C5        -332.3624  -243.6456   442.8339 C5            1 RES     
   14800 C5        -331.6104  -244.7081   443.6277 C5            1 RES     
   14801 C5        -327.6787  -240.5115   438.2423 C5            1 RES     
   14802 C0        -327.4914  -239.4635   439.4062 C0            1 RES     
   14803 C5        -325.9338  -239.1435   439.4206 C5            1 RES     
   14804 C5        -325.1313  -239.8496   440.5642 C5            1 RES     
   14805 C5        -325.1389  -239.0617   441.9156 C5            1 RES     
   14806 C5        -324.2412  -237.8029   441.9593 C5            1 RES     
   14807 C5        -324.4078  -236.9486   443.2292 C5            1 RES     
   14808 C5        -323.8412  -237.5659   444.5220 C5            1 RES     
   14809 C5        -322.3163  -237.8079   444.5178 C5            1 RES     
   14810 C5        -321.4952  -236.5314   444.3077 C5            1 RES     
   14811 C5        -323.6973  -240.3071   440.1354 C5            1 RES     
   14812 C5        -322.8286  -239.3010   439.3368 C5            1 RES     
   14813 C5        -321.3672  -239.7695   439.1541 C5            1 RES     
   14814 C5        -321.2219  -241.1078   438.4051 C5            1 RES     
   14815 C5        -319.7561  -241.5513   438.2244 C5            1 RES     
   14816 C5        -318.9498  -240.6336   437.2849 C5            1 RES     
   14817 C5        -317.4861  -241.0754   437.1061 C5            1 RES     
   14818 C5        -317.3326  -242.4415   436.4358 C5            1 RES     
   14819 H6        -334.2931  -240.7232   431.7044 H6            1 RES     
   14820 H6        -335.5681  -239.4991   431.4022 H6            1 RES     
   14821 H6        -335.7119  -240.5966   432.8262 H6            1 RES     
   14822 H6        -333.5447  -238.4266   432.3959 H6            1 RES     
   14823 H6        -334.9943  -238.2788   433.4527 H6            1 RES     
   14824 H6        -333.0220  -238.7723   434.8036 H6            1 RES     
   14825 H6        -334.2121  -240.1192   434.8961 H6            1 RES     
   14826 H6        -331.6537  -240.1165   433.1354 H6            1 RES     
   14827 H6        -332.8491  -241.4639   433.3040 H6            1 RES     
   14828 H6        -331.0994  -240.2817   435.5594 H6            1 RES     
   14829 H6        -332.3998  -241.5341   435.7566 H6            1 RES     
   14830 H6        -331.2945  -243.0858   434.3098 H6            1 RES     
   14831 H6        -329.9112  -241.9831   433.9950 H6            1 RES     
   14832 H6        -330.7802  -243.0310   436.7752 H6            1 RES     
   14833 H6        -329.5837  -243.8388   435.7382 H6            1 RES     
   14834 H6        -328.6234  -241.1749   435.8391 H6            1 RES     
   14835 H6        -327.8650  -242.6381   436.4969 H6            1 RES     
   14836 H6        -329.8278  -240.8682   437.9145 H6            1 RES     
   14837 H6        -329.8368  -243.2704   438.6388 H6            1 RES     
   14838 H6        -328.2075  -243.0930   439.2972 H6            1 RES     
   14839 H6        -329.1621  -241.3846   440.9463 H6            1 RES     
   14840 H6        -330.6815  -241.3511   439.9773 H6            1 RES     
   14841 H6        -329.7431  -243.8136   441.5561 H6            1 RES     
   14842 H6        -331.1442  -243.7253   440.4221 H6            1 RES     
   14843 H6        -330.8653  -242.0462   442.9872 H6            1 RES     
   14844 H6        -332.1332  -241.8410   441.7253 H6            1 RES     
   14845 H6        -332.9617  -244.1388   442.0361 H6            1 RES     
   14846 H6        -333.0707  -243.1366   443.5232 H6            1 RES     
   14847 H6        -331.0367  -244.2342   444.4513 H6            1 RES     
   14848 H6        -330.9230  -245.2820   442.9735 H6            1 RES     
   14849 H6        -332.3433  -245.4182   444.0677 H6            1 RES     
   14850 H6        -327.5078  -239.9105   437.3215 H6            1 RES     
   14851 H6        -326.8410  -241.2442   438.3122 H6            1 RES     
   14852 H6        -325.5091  -239.4790   438.4512 H6            1 RES     
   14853 H6        -325.6879  -238.0733   439.3807 H6            1 RES     
   14854 H6        -325.6638  -240.8045   440.7793 H6            1 RES     
   14855 H6        -326.1909  -238.7836   442.1428 H6            1 RES     
   14856 H6        -324.7909  -239.7401   442.7237 H6            1 RES     
   14857 H6        -323.1751  -238.0741   441.8688 H6            1 RES     
   14858 H6        -324.4934  -237.1599   441.1033 H6            1 RES     
   14859 H6        -323.9071  -235.9716   443.0638 H6            1 RES     
   14860 H6        -325.4849  -236.7312   443.3766 H6            1 RES     
   14861 H6        -324.3589  -238.5247   444.7321 H6            1 RES     
   14862 H6        -324.0731  -236.8704   445.3586 H6            1 RES     
   14863 H6        -322.0388  -238.5535   443.7449 H6            1 RES     
   14864 H6        -322.0372  -238.2330   445.5061 H6            1 RES     
   14865 H6        -321.7426  -235.7768   445.0846 H6            1 RES     
   14866 H6        -320.4131  -236.7703   444.3799 H6            1 RES     
   14867 H6        -321.6750  -236.0978   443.3026 H6            1 RES     
   14868 H6        -323.8226  -241.1887   439.4717 H6            1 RES     
   14869 H6        -323.1595  -240.6534   441.0449 H6            1 RES     
   14870 H6        -322.7701  -238.3202   439.8299 H6            1 RES     
   14871 H6        -323.2787  -239.1242   438.3395 H6            1 RES     
   14872 H6        -320.8448  -238.9696   438.5899 H6            1 RES     
   14873 H6        -320.8867  -239.8582   440.1534 H6            1 RES     
   14874 H6        -321.7155  -241.0466   437.4112 H6            1 RES     
   14875 H6        -321.7242  -241.9000   438.9987 H6            1 RES     
   14876 H6        -319.2600  -241.6090   439.2182 H6            1 RES     
   14877 H6        -319.7807  -242.5716   437.7888 H6            1 RES     
   14878 H6        -318.9223  -239.6078   437.7047 H6            1 RES     
   14879 H6        -319.4444  -240.5917   436.2899 H6            1 RES     
   14880 H6        -316.9784  -240.3239   436.4627 H6            1 RES     
   14881 H6        -316.9727  -241.0879   438.0919 H6            1 RES     
   14882 H6        -317.7597  -243.2488   437.0641 H6            1 RES     
   14883 H6        -316.2532  -242.6604   436.2927 H6            1 RES     
   14884 H6        -317.8286  -242.4420   435.4423 H6            1 RES     
   14885 C0        -339.2378  -242.2454   434.6664 C0            1 RES     
   14886 C0        -340.6586  -242.0484   435.1959 C0            1 RES     
   14887 C0        -340.6564  -241.7206   436.5103 C0            1 RES     
   14888 S1        -342.1863  -241.4327   437.1252 S1            1 RES     
   14889 C0        -342.9309  -241.7391   435.6240 C0            1 RES     
   14890 C0        -341.9445  -242.0101   434.6604 C0            1 RES     
   14891 C0        -339.3161  -241.5472   436.9531 C0            1 RES     
   14892 C0        -338.5151  -241.7655   435.9346 C0            1 RES     
   14893 C0        -337.1561  -241.3483   436.2255 C0            1 RES     
   14894 C0        -337.0643  -240.8534   437.5176 C0            1 RES     
   14895 S1        -338.6081  -240.8897   438.4512 S1            1 RES     
   14896 H2        -342.1753  -242.1122   433.6215 H2            1 RES     
   14897 H2        -336.3556  -241.2797   435.5091 H2            1 RES     
   14898 N3        -346.2273  -242.3884   433.9205 N3            1 RES     
   14899 C0        -344.8958  -242.3837   434.2147 C0            1 RES     
   14900 C0        -344.3906  -241.7014   435.3398 C0            1 RES     
   14901 C0        -345.3245  -241.0365   436.1516 C0            1 RES     
   14902 N3        -345.0076  -240.3299   437.2694 N3            1 RES     
   14903 S1        -346.4807  -239.7653   437.7655 S1            1 RES     
   14904 N3        -347.5340  -240.3640   436.6431 N3            1 RES     
   14905 C0        -346.7045  -241.0495   435.8149 C0            1 RES     
   14906 C0        -347.1414  -241.7363   434.6897 C0            1 RES     
   14907 H4        -344.2305  -242.9448   433.5826 H4            1 RES     
   14908 C5        -347.0392  -240.0350   429.0380 C5            1 RES     
   14909 C5        -345.8783  -239.5527   429.9092 C5            1 RES     
   14910 C5        -345.2026  -240.6750   430.7169 C5            1 RES     
   14911 C5        -344.5609  -241.7767   429.8505 C5            1 RES     
   14912 C5        -343.8662  -242.8228   430.7395 C5            1 RES     
   14913 C5        -343.3954  -244.0535   429.9516 C5            1 RES     
   14914 C5        -342.7729  -245.1376   430.8633 C5            1 RES     
   14915 C5        -341.2948  -244.8766   431.2900 C5            1 RES     
   14916 C5        -341.0248  -244.7196   432.8182 C5            1 RES     
   14917 C5        -341.4420  -245.9831   433.6261 C5            1 RES     
   14918 C5        -341.7504  -245.6640   435.1009 C5            1 RES     
   14919 C5        -342.6360  -246.7541   435.7419 C5            1 RES     
   14920 C5        -343.1742  -246.2947   437.1089 C5            1 RES     
   14921 C5        -344.2922  -247.1987   437.6587 C5            1 RES     
   14922 C5        -343.8320  -248.6135   437.9920 C5            1 RES     
   14923 C5        -339.5266  -244.3077   432.9925 C5            1 RES     
   14924 C0        -338.8410  -243.7432   434.2960 C0            1 RES     
   14925 C5        -337.2797  -243.8929   434.0334 C5            1 RES     
   14926 C5        -336.6051  -245.0986   434.7694 C5            1 RES     
   14927 C5        -336.1613  -244.7718   436.2335 C5            1 RES     
   14928 C5        -334.8999  -243.8865   436.3666 C5            1 RES     
   14929 C5        -334.5937  -243.4306   437.8048 C5            1 RES     
   14930 C5        -334.0888  -244.5324   438.7559 C5            1 RES     
   14931 C5        -332.7472  -245.1811   438.3519 C5            1 RES     
   14932 C5        -331.5871  -244.1838   438.2663 C5            1 RES     
   14933 C5        -335.4794  -245.7944   433.9340 C5            1 RES     
   14934 C5        -334.4471  -244.8855   433.2180 C5            1 RES     
   14935 C5        -333.2650  -245.6712   432.6065 C5            1 RES     
   14936 C5        -333.6787  -246.7161   431.5528 C5            1 RES     
   14937 C5        -332.4838  -247.4806   430.9480 C5            1 RES     
   14938 C5        -331.5588  -246.5938   430.0920 C5            1 RES     
   14939 C5        -330.3651  -247.3568   429.4900 C5            1 RES     
   14940 C5        -330.7693  -248.4523   428.5024 C5            1 RES     
   14941 H6        -346.6838  -240.7281   428.2489 H6            1 RES     
   14942 H6        -347.5093  -239.1624   428.5362 H6            1 RES     
   14943 H6        -347.8080  -240.5418   429.6591 H6            1 RES     
   14944 H6        -345.1265  -239.0419   429.2708 H6            1 RES     
   14945 H6        -346.2814  -238.8085   430.6314 H6            1 RES     
   14946 H6        -344.4160  -240.2095   431.3497 H6            1 RES     
   14947 H6        -345.9602  -241.1329   431.3907 H6            1 RES     
   14948 H6        -343.8196  -241.3346   429.1496 H6            1 RES     
   14949 H6        -345.3583  -242.2792   429.2637 H6            1 RES     
   14950 H6        -343.0175  -242.3508   431.2790 H6            1 RES     
   14951 H6        -344.6186  -243.1874   431.4660 H6            1 RES     
   14952 H6        -344.3054  -244.4931   429.4861 H6            1 RES     
   14953 H6        -342.6931  -243.7821   429.1342 H6            1 RES     
   14954 H6        -343.4618  -245.3090   431.7150 H6            1 RES     
   14955 H6        -342.7591  -246.0803   430.2759 H6            1 RES     
   14956 H6        -340.9651  -243.9452   430.7771 H6            1 RES     
   14957 H6        -340.6510  -245.6882   430.8868 H6            1 RES     
   14958 H6        -341.6958  -243.9335   433.0833 H6            1 RES     
   14959 H6        -342.4000  -246.3384   433.2093 H6            1 RES     
   14960 H6        -340.7288  -246.8271   433.5065 H6            1 RES     
   14961 H6        -340.8211  -245.4799   435.6804 H6            1 RES     
   14962 H6        -342.3632  -244.7384   435.1140 H6            1 RES     
   14963 H6        -342.0837  -247.7150   435.8208 H6            1 RES     
   14964 H6        -343.5205  -246.9084   435.0844 H6            1 RES     
   14965 H6        -342.3434  -246.2029   437.8401 H6            1 RES     
   14966 H6        -343.6349  -245.2895   436.9799 H6            1 RES     
   14967 H6        -345.1268  -247.2476   436.9240 H6            1 RES     
   14968 H6        -344.6873  -246.7362   438.5892 H6            1 RES     
   14969 H6        -343.0241  -248.5828   438.7525 H6            1 RES     
   14970 H6        -343.4731  -249.1399   437.0844 H6            1 RES     
   14971 H6        -344.6897  -249.1853   438.4075 H6            1 RES     
   14972 H6        -339.2968  -243.5371   432.2233 H6            1 RES     
   14973 H6        -338.9786  -245.2334   432.6988 H6            1 RES     
   14974 H6        -337.1308  -244.0354   432.9424 H6            1 RES     
   14975 H6        -336.7007  -242.9723   434.1902 H6            1 RES     
   14976 H6        -337.3887  -245.8845   434.8699 H6            1 RES     
   14977 H6        -337.0184  -244.2883   436.7503 H6            1 RES     
   14978 H6        -335.9484  -245.7262   436.7611 H6            1 RES     
   14979 H6        -334.0081  -244.4077   435.9775 H6            1 RES     
   14980 H6        -335.0418  -242.9775   435.7639 H6            1 RES     
   14981 H6        -333.8256  -242.6300   437.7638 H6            1 RES     
   14982 H6        -335.5057  -242.9722   438.2377 H6            1 RES     
   14983 H6        -334.8605  -245.3246   438.8473 H6            1 RES     
   14984 H6        -333.9570  -244.0764   439.7619 H6            1 RES     
   14985 H6        -332.8442  -245.7144   437.3842 H6            1 RES     
   14986 H6        -332.4894  -245.9373   439.1246 H6            1 RES     
   14987 H6        -331.4585  -243.6520   439.2331 H6            1 RES     
   14988 H6        -330.6468  -244.7276   438.0351 H6            1 RES     
   14989 H6        -331.7518  -243.4429   437.4574 H6            1 RES     
   14990 H6        -335.9820  -246.3708   433.1285 H6            1 RES     
   14991 H6        -334.9652  -246.5284   434.5922 H6            1 RES     
   14992 H6        -333.9978  -244.1499   433.9002 H6            1 RES     
   14993 H6        -334.9481  -244.3056   432.4172 H6            1 RES     
   14994 H6        -332.5913  -244.9219   432.1419 H6            1 RES     
   14995 H6        -332.7061  -246.1798   433.4228 H6            1 RES     
   14996 H6        -334.2581  -246.2304   430.7381 H6            1 RES     
   14997 H6        -334.3269  -247.4725   432.0423 H6            1 RES     
   14998 H6        -331.9008  -247.9637   431.7629 H6            1 RES     
   14999 H6        -332.9065  -248.2787   430.3032 H6            1 RES     
   15000 H6        -331.1338  -245.7868   430.7225 H6            1 RES     
   15001 H6        -332.1458  -246.1252   429.2721 H6            1 RES     
   15002 H6        -329.7323  -246.6244   428.9426 H6            1 RES     
   15003 H6        -329.7521  -247.8010   430.3039 H6            1 RES     
   15004 H6        -331.3476  -249.2539   429.0044 H6            1 RES     
   15005 H6        -329.8551  -248.9141   428.0727 H6            1 RES     
   15006 H6        -331.3715  -248.0226   427.6743 H6            1 RES     
   15007 C0        -351.3862  -241.5956   431.8089 C0            1 RES     
   15008 C0        -352.5720  -241.1710   432.6759 C0            1 RES     
   15009 C0        -352.2769  -241.2567   433.9952 C0            1 RES     
   15010 S1        -353.5223  -240.7434   434.9888 S1            1 RES     
   15011 C0        -354.5290  -240.3746   433.6649 C0            1 RES     
   15012 C0        -353.8339  -240.6177   432.4680 C0            1 RES     
   15013 C0        -350.9070  -241.6047   434.1527 C0            1 RES     
   15014 C0        -350.3751  -241.7314   432.9579 C0            1 RES     
   15015 C0        -348.9280  -241.8174   433.0243 C0            1 RES     
   15016 C0        -348.4970  -241.7690   434.3414 C0            1 RES     
   15017 S1        -349.8182  -241.6413   435.5637 S1            1 RES     
   15018 H2        -354.2288  -240.3422   431.5135 H2            1 RES     
   15019 H2        -348.2590  -241.7701   432.1824 H2            1 RES     
   15020 N3        -358.0584  -239.5427   432.6445 N3            1 RES     
   15021 C0        -356.7735  -239.9989   432.6240 C0            1 RES     
   15022 C0        -355.9181  -239.8466   433.7337 C0            1 RES     
   15023 C0        -356.4547  -239.2139   434.8673 C0            1 RES     
   15024 N3        -355.7679  -238.9843   436.0182 N3            1 RES     
   15025 S1        -356.8850  -238.1992   436.9512 S1            1 RES     
   15026 N3        -358.2237  -238.1217   435.9870 N3            1 RES     
   15027 C0        -357.7936  -238.7391   434.8566 C0            1 RES     
   15028 C0        -358.5868  -238.9147   433.7304 C0            1 RES     
   15029 H4        -356.4277  -240.5138   431.7451 H4            1 RES     
   15030 C5        -358.7192  -235.7347   428.7588 C5            1 RES     
   15031 C5        -357.3540  -235.8753   429.4340 C5            1 RES     
   15032 C5        -356.9830  -237.3274   429.7837 C5            1 RES     
   15033 C5        -356.8715  -238.2612   428.5623 C5            1 RES     
   15034 C5        -356.4461  -239.6727   429.0023 C5            1 RES     
   15035 C5        -356.5258  -240.6993   427.8635 C5            1 RES     
   15036 C5        -356.1771  -242.1321   428.3325 C5            1 RES     
   15037 C5        -354.6518  -242.4340   428.4641 C5            1 RES     
   15038 C5        -354.1335  -242.8137   429.8855 C5            1 RES     
   15039 C5        -354.8288  -244.0875   430.4486 C5            1 RES     
   15040 C5        -354.8039  -244.1407   431.9876 C5            1 RES     
   15041 C5        -355.9018  -245.0756   432.5387 C5            1 RES     
   15042 C5        -356.0598  -244.9044   434.0604 C5            1 RES     
   15043 C5        -357.3257  -245.5771   434.6211 C5            1 RES     
   15044 C5        -357.3193  -247.0971   434.5023 C5            1 RES     
   15045 C5        -352.5749  -242.9095   429.8091 C5            1 RES     
   15046 C0        -351.5651  -242.9678   431.0194 C0            1 RES     
   15047 C5        -350.1953  -243.4668   430.3844 C5            1 RES     
   15048 C5        -349.8629  -244.9738   430.6470 C5            1 RES     
   15049 C5        -349.1352  -245.2284   432.0082 C5            1 RES     
   15050 C5        -347.6460  -244.8129   432.0567 C5            1 RES     
   15051 C5        -347.0075  -244.9031   433.4546 C5            1 RES     
   15052 C5        -346.7688  -246.3304   433.9832 C5            1 RES     
   15053 C5        -345.7892  -247.1824   433.1474 C5            1 RES     
   15054 C5        -344.3880  -246.5721   433.0380 C5            1 RES     
   15055 C5        -349.1609  -245.6818   429.4407 C5            1 RES     
   15056 C5        -347.9967  -244.9319   428.7431 C5            1 RES     
   15057 C5        -347.2404  -245.8034   427.7150 C5            1 RES     
   15058 C5        -348.1209  -246.3337   426.5674 C5            1 RES     
   15059 C5        -347.3448  -247.1915   425.5477 C5            1 RES     
   15060 C5        -346.3075  -246.3906   424.7368 C5            1 RES     
   15061 C5        -345.5317  -247.2474   423.7202 C5            1 RES     
   15062 C5        -346.4109  -247.8460   422.6212 C5            1 RES     
   15063 H6        -358.7284  -236.2372   427.7704 H6            1 RES     
   15064 H6        -358.9384  -234.6582   428.5938 H6            1 RES     
   15065 H6        -359.5175  -236.1635   429.4011 H6            1 RES     
   15066 H6        -356.5727  -235.4331   428.7800 H6            1 RES     
   15067 H6        -357.3819  -235.2932   430.3817 H6            1 RES     
   15068 H6        -356.0060  -237.3083   430.3137 H6            1 RES     
   15069 H6        -357.7472  -237.7300   430.4847 H6            1 RES     
   15070 H6        -356.1316  -237.8604   427.8355 H6            1 RES     
   15071 H6        -357.8644  -238.3245   428.0695 H6            1 RES     
   15072 H6        -355.4220  -239.6379   429.4317 H6            1 RES     
   15073 H6        -357.1671  -240.0070   429.7738 H6            1 RES     
   15074 H6        -357.5859  -240.7090   427.5256 H6            1 RES     
   15075 H6        -355.8952  -240.4096   426.9956 H6            1 RES     
   15076 H6        -356.7572  -242.3442   429.2533 H6            1 RES     
   15077 H6        -356.5594  -242.8256   427.5536 H6            1 RES     
   15078 H6        -354.1070  -241.5254   428.1223 H6            1 RES     
   15079 H6        -354.3772  -243.2388   427.7482 H6            1 RES     
   15080 H6        -354.4614  -241.9841   430.4709 H6            1 RES     
   15081 H6        -355.8988  -244.0209   430.1871 H6            1 RES     
   15082 H6        -354.4604  -245.0245   429.9777 H6            1 RES     
   15083 H6        -353.7946  -244.4033   432.3693 H6            1 RES     
   15084 H6        -355.0665  -243.1263   432.3542 H6            1 RES     
   15085 H6        -355.6946  -246.1321   432.2646 H6            1 RES     
   15086 H6        -356.8703  -244.7755   432.0801 H6            1 RES     
   15087 H6        -355.1518  -245.2680   434.5862 H6            1 RES     
   15088 H6        -356.1740  -243.8184   434.2769 H6            1 RES     
   15089 H6        -358.2234  -245.1721   434.1027 H6            1 RES     
   15090 H6        -357.4103  -245.3155   435.6983 H6            1 RES     
   15091 H6        -356.4488  -247.5188   435.0468 H6            1 RES     
   15092 H6        -357.2864  -247.4135   433.4400 H6            1 RES     
   15093 H6        -358.2508  -247.5000   434.9549 H6            1 RES     
   15094 H6        -352.2126  -242.0447   429.2098 H6            1 RES     
   15095 H6        -352.4121  -243.8237   429.1916 H6            1 RES     
   15096 H6        -350.2566  -243.3196   429.2856 H6            1 RES     
   15097 H6        -349.3276  -242.8341   430.6173 H6            1 RES     
   15098 H6        -350.8407  -245.5012   430.7350 H6            1 RES     
   15099 H6        -349.7018  -244.6967   432.8031 H6            1 RES     
   15100 H6        -349.1794  -246.3148   432.2364 H6            1 RES     
   15101 H6        -347.0416  -245.4262   431.3661 H6            1 RES     
   15102 H6        -347.5612  -243.7658   431.7309 H6            1 RES     
   15103 H6        -346.0309  -244.3754   433.4298 H6            1 RES     
   15104 H6        -347.6453  -244.3544   434.1766 H6            1 RES     
   15105 H6        -347.7388  -246.8642   434.0585 H6            1 RES     
   15106 H6        -346.3534  -246.2451   435.0115 H6            1 RES     
   15107 H6        -346.1924  -247.3593   432.1293 H6            1 RES     
   15108 H6        -345.6913  -248.1721   433.6435 H6            1 RES     
   15109 H6        -343.9560  -246.4051   434.0477 H6            1 RES     
   15110 H6        -343.7238  -247.2658   432.4804 H6            1 RES     
   15111 H6        -344.4092  -245.6119   432.4830 H6            1 RES     
   15112 H6        -349.9340  -245.8316   428.6574 H6            1 RES     
   15113 H6        -348.8325  -246.6898   429.7761 H6            1 RES     
   15114 H6        -347.2378  -244.5855   429.4591 H6            1 RES     
   15115 H6        -348.3838  -244.0267   428.2340 H6            1 RES     
   15116 H6        -346.4285  -245.1721   427.2988 H6            1 RES     
   15117 H6        -346.7734  -246.6642   428.2424 H6            1 RES     
   15118 H6        -348.6144  -245.4885   426.0408 H6            1 RES     
   15119 H6        -348.9080  -246.9860   426.9999 H6            1 RES     
   15120 H6        -346.8470  -248.0353   426.0743 H6            1 RES     
   15121 H6        -348.0944  -247.6134   424.8466 H6            1 RES     
   15122 H6        -345.5549  -245.9570   425.4259 H6            1 RES     
   15123 H6        -346.8146  -245.5573   424.2029 H6            1 RES     
   15124 H6        -344.7750  -246.5958   423.2309 H6            1 RES     
   15125 H6        -344.9932  -248.0640   424.2482 H6            1 RES     
   15126 H6        -347.1460  -248.5629   423.0391 H6            1 RES     
   15127 H6        -345.7715  -248.3993   421.9010 H6            1 RES     
   15128 H6        -346.9461  -247.0416   422.0739 H6            1 RES     
   15129 C0        -362.9038  -236.7496   431.9945 C0            1 RES     
   15130 C0        -363.7475  -236.2818   433.1808 C0            1 RES     
   15131 C0        -363.3156  -236.8291   434.3423 C0            1 RES     
   15132 S1        -364.1677  -236.3005   435.6825 S1            1 RES     
   15133 C0        -365.1700  -235.2930   434.7432 C0            1 RES     
   15134 C0        -364.7701  -235.3604   433.3977 C0            1 RES     
   15135 C0        -362.1311  -237.5785   434.1014 C0            1 RES     
   15136 C0        -361.8445  -237.4942   432.8218 C0            1 RES     
   15137 C0        -360.5138  -237.9991   432.5386 C0            1 RES     
   15138 C0        -359.9110  -238.4616   433.6986 C0            1 RES     
   15139 S1        -360.9298  -238.3310   435.1823 S1            1 RES     
   15140 H2        -365.1808  -234.7182   432.6481 H2            1 RES     
   15141 H2        -359.9921  -237.8977   431.6026 H2            1 RES     
   15142 N3        -368.3293  -233.2416   434.7674 N3            1 RES     
   15143 C0        -367.2850  -234.0138   434.3519 C0            1 RES     
   15144 C0        -366.2809  -234.4400   435.2445 C0            1 RES     
   15145 C0        -366.4125  -234.0425   436.5854 C0            1 RES     
   15146 N3        -365.5342  -234.3626   437.5730 N3            1 RES     
   15147 S1        -366.1850  -233.6040   438.8905 S1            1 RES     
   15148 N3        -367.5433  -232.8746   438.2981 N3            1 RES     
   15149 C0        -367.5054  -233.2290   436.9878 C0            1 RES     
   15150 C0        -368.4615  -232.8369   436.0601 C0            1 RES     
   15151 H4        -367.2566  -234.3245   433.3225 H4            1 RES     
   15152 C5        -368.2266  -228.4384   432.1301 C5            1 RES     
   15153 C5        -366.9052  -229.1484   432.4284 C5            1 RES     
   15154 C5        -366.9920  -230.6822   432.3364 C5            1 RES     
   15155 C5        -367.3691  -231.2096   430.9379 C5            1 RES     
   15156 C5        -367.3791  -232.7480   430.9287 C5            1 RES     
   15157 C5        -367.9538  -233.3307   429.6297 C5            1 RES     
   15158 C5        -368.0383  -234.8754   429.6602 C5            1 RES     
   15159 C5        -366.6973  -235.6187   429.3705 C5            1 RES     
   15160 C5        -366.1405  -236.5274   430.5095 C5            1 RES     
   15161 C5        -367.1329  -237.6609   430.9013 C5            1 RES     
   15162 C5        -366.9115  -238.1669   432.3389 C5            1 RES     
   15163 C5        -368.1687  -238.8738   432.8893 C5            1 RES     
   15164 C5        -368.0459  -239.1182   434.4042 C5            1 RES     
   15165 C5        -369.3715  -239.5412   435.0626 C5            1 RES     
   15166 C5        -369.8866  -240.8975   434.5938 C5            1 RES     
   15167 C5        -364.7290  -237.0309   430.0637 C5            1 RES     
   15168 C0        -363.6367  -237.7223   430.9676 C0            1 RES     
   15169 C5        -362.6136  -238.3778   429.9418 C5            1 RES     
   15170 C5        -362.7669  -239.9254   429.7633 C5            1 RES     
   15171 C5        -361.9817  -240.7610   430.8275 C5            1 RES     
   15172 C5        -360.4478  -240.8142   430.6349 C5            1 RES     
   15173 C5        -359.6861  -241.4853   431.7923 C5            1 RES     
   15174 C5        -359.8631  -243.0116   431.9052 C5            1 RES     
   15175 C5        -359.3492  -243.8211   430.6949 C5            1 RES     
   15176 C5        -357.8549  -243.6253   430.4183 C5            1 RES     
   15177 C5        -362.5161  -240.4169   428.2988 C5            1 RES     
   15178 C5        -361.2790  -239.8547   427.5519 C5            1 RES     
   15179 C5        -361.0069  -240.5630   426.2054 C5            1 RES     
   15180 C5        -362.1651  -240.4643   425.1945 C5            1 RES     
   15181 C5        -361.8689  -241.1681   423.8547 C5            1 RES     
   15182 C5        -360.7492  -240.4904   423.0411 C5            1 RES     
   15183 C5        -360.4523  -241.1942   421.7046 C5            1 RES     
   15184 C5        -361.6252  -241.1725   420.7234 C5            1 RES     
   15185 H6        -368.5406  -228.6059   431.0799 H6            1 RES     
   15186 H6        -368.0970  -227.3447   432.2748 H6            1 RES     
   15187 H6        -369.0235  -228.7938   432.8173 H6            1 RES     
   15188 H6        -366.1213  -228.7726   431.7371 H6            1 RES     
   15189 H6        -366.6050  -228.8859   433.4671 H6            1 RES     
   15190 H6        -365.9999  -231.0946   432.6222 H6            1 RES     
   15191 H6        -367.7402  -231.0404   433.0776 H6            1 RES     
   15192 H6        -366.6478  -230.8387   430.1774 H6            1 RES     
   15193 H6        -368.3855  -230.8441   430.6807 H6            1 RES     
   15194 H6        -366.3520  -233.1298   431.1123 H6            1 RES     
   15195 H6        -368.0544  -233.0766   431.7428 H6            1 RES     
   15196 H6        -368.9933  -232.9425   429.5466 H6            1 RES     
   15197 H6        -367.3911  -232.9892   428.7343 H6            1 RES     
   15198 H6        -368.5208  -235.1756   430.6122 H6            1 RES     
   15199 H6        -368.7344  -235.1738   428.8476 H6            1 RES     
   15200 H6        -365.9354  -234.8415   429.1366 H6            1 RES     
   15201 H6        -366.8086  -236.2220   428.4435 H6            1 RES     
   15202 H6        -366.0890  -235.8483   431.3309 H6            1 RES     
   15203 H6        -368.1456  -237.2226   430.9106 H6            1 RES     
   15204 H6        -367.1663  -238.4830   430.1541 H6            1 RES     
   15205 H6        -366.0037  -238.8024   432.4114 H6            1 RES     
   15206 H6        -366.7684  -237.2732   432.9818 H6            1 RES     
   15207 H6        -368.3645  -239.8175   432.3365 H6            1 RES     
   15208 H6        -369.0369  -238.1930   432.7437 H6            1 RES     
   15209 H6        -367.2458  -239.8598   434.6121 H6            1 RES     
   15210 H6        -367.7617  -238.1570   434.8883 H6            1 RES     
   15211 H6        -370.1472  -238.7669   434.8691 H6            1 RES     
   15212 H6        -369.2125  -239.5936   436.1616 H6            1 RES     
   15213 H6        -369.1382  -241.6869   434.8143 H6            1 RES     
   15214 H6        -370.1099  -240.8850   433.5076 H6            1 RES     
   15215 H6        -370.8259  -241.1362   435.1377 H6            1 RES     
   15216 H6        -364.1881  -236.1670   429.6173 H6            1 RES     
   15217 H6        -364.9671  -237.7315   429.2295 H6            1 RES     
   15218 H6        -362.7760  -237.9044   428.9506 H6            1 RES     
   15219 H6        -361.5616  -238.1117   430.1144 H6            1 RES     
   15220 H6        -363.8417  -240.1581   429.9436 H6            1 RES     
   15221 H6        -362.2223  -240.3483   431.8312 H6            1 RES     
   15222 H6        -362.3515  -241.8083   430.7996 H6            1 RES     
   15223 H6        -360.1844  -241.3426   429.7023 H6            1 RES     
   15224 H6        -360.0668  -239.7858   430.5522 H6            1 RES     
   15225 H6        -358.6035  -241.2704   431.6721 H6            1 RES     
   15226 H6        -359.9977  -241.0157   432.7470 H6            1 RES     
   15227 H6        -360.9345  -243.2487   432.0702 H6            1 RES     
   15228 H6        -359.3031  -243.3513   432.8042 H6            1 RES     
   15229 H6        -359.9268  -243.5715   429.7815 H6            1 RES     
   15230 H6        -359.5168  -244.8983   430.9110 H6            1 RES     
   15231 H6        -357.2549  -243.8896   431.3151 H6            1 RES     
   15232 H6        -357.5437  -244.2829   429.5793 H6            1 RES     
   15233 H6        -357.6338  -242.5794   430.1224 H6            1 RES     
   15234 H6        -363.3968  -240.1071   427.6971 H6            1 RES     
   15235 H6        -362.4973  -241.5286   428.3066 H6            1 RES     
   15236 H6        -360.3557  -239.9611   428.1390 H6            1 RES     
   15237 H6        -361.4111  -238.7695   427.3689 H6            1 RES     
   15238 H6        -360.0984  -240.0926   425.7763 H6            1 RES     
   15239 H6        -360.7831  -241.6354   426.3981 H6            1 RES     
   15240 H6        -362.4189  -239.3989   425.0049 H6            1 RES     
   15241 H6        -363.0553  -240.9657   425.6285 H6            1 RES     
   15242 H6        -361.6108  -242.2334   424.0436 H6            1 RES     
   15243 H6        -362.8064  -241.1377   423.2619 H6            1 RES     
   15244 H6        -359.8066  -240.5075   423.6246 H6            1 RES     
   15245 H6        -361.0205  -239.4301   422.8449 H6            1 RES     
   15246 H6        -359.5988  -240.6683   421.2236 H6            1 RES     
   15247 H6        -360.1470  -242.2465   421.8921 H6            1 RES     
   15248 H6        -362.4903  -241.7433   421.1168 H6            1 RES     
   15249 H6        -361.3135  -241.6472   419.7689 H6            1 RES     
   15250 H6        -361.9342  -240.1267   420.5141 H6            1 RES     
   15251 C0        -372.0133  -229.1362   435.8964 C0            1 RES     
   15252 C0        -372.4788  -228.8185   437.3178 C0            1 RES     
   15253 C0        -372.0947  -229.7801   438.1913 C0            1 RES     
   15254 S1        -372.5262  -229.4496   439.7744 S1            1 RES     
   15255 C0        -373.2586  -227.9721   439.3470 C0            1 RES     
   15256 C0        -373.0965  -227.7524   437.9685 C0            1 RES     
   15257 C0        -371.2723  -230.7276   437.5215 C0            1 RES     
   15258 C0        -371.1563  -230.3567   436.2663 C0            1 RES     
   15259 C0        -370.1223  -231.1094   435.5808 C0            1 RES     
   15260 C0        -369.5509  -232.0410   436.4342 C0            1 RES     
   15261 S1        -370.2498  -232.0694   438.0976 S1            1 RES     
   15262 H2        -373.3716  -226.8306   437.5020 H2            1 RES     
   15263 H2        -369.7332  -230.8895   434.6016 H2            1 RES     
   15264 N3        -375.5214  -225.2159   440.5606 N3            1 RES     
   15265 C0        -374.8618  -226.0937   439.7521 C0            1 RES     
   15266 C0        -373.9414  -227.0268   440.2706 C0            1 RES     
   15267 C0        -373.7443  -227.0189   441.6615 C0            1 RES     
   15268 N3        -372.8928  -227.8474   442.3230 N3            1 RES     
   15269 S1        -373.0633  -227.3566   443.8930 S1            1 RES     
   15270 N3        -374.1713  -226.1347   443.8090 N3            1 RES     
   15271 C0        -374.4373  -226.0858   442.4783 C0            1 RES     
   15272 C0        -375.3292  -225.1871   441.9078 C0            1 RES     
   15273 H4        -375.0827  -226.0845   438.6994 H4            1 RES     
   15274 C5        -374.2012  -220.0832   439.1647 C5            1 RES     
   15275 C5        -373.1624  -221.1909   438.9834 C5            1 RES     
   15276 C5        -373.7653  -222.5414   438.5577 C5            1 RES     
   15277 C5        -374.4882  -222.5081   437.1967 C5            1 RES     
   15278 C5        -375.0094  -223.9087   436.8309 C5            1 RES     
   15279 C5        -375.9210  -223.8994   435.5956 C5            1 RES     
   15280 C5        -376.5083  -225.2963   435.2827 C5            1 RES     
   15281 C5        -375.5446  -226.2681   434.5329 C5            1 RES     
   15282 C5        -375.1671  -227.5884   435.2727 C5            1 RES     
   15283 C5        -376.4142  -228.4599   435.6021 C5            1 RES     
   15284 C5        -376.1740  -229.4054   436.7939 C5            1 RES     
   15285 C5        -377.5043  -229.8590   437.4326 C5            1 RES     
   15286 C5        -377.2584  -230.5602   438.7808 C5            1 RES     
   15287 C5        -378.5430  -230.7667   439.6034 C5            1 RES     
   15288 C5        -379.5394  -231.7242   438.9592 C5            1 RES     
   15289 C5        -374.0801  -228.3150   434.4155 C5            1 RES     
   15290 C0        -373.1639  -229.5186   434.8629 C0            1 RES     
   15291 C5        -372.5708  -230.1052   433.5090 C5            1 RES     
   15292 C5        -373.2525  -231.4243   433.0134 C5            1 RES     
   15293 C5        -372.6482  -232.7202   433.6479 C5            1 RES     
   15294 C5        -371.2620  -233.1438   433.1078 C5            1 RES     
   15295 C5        -370.6119  -234.3100   433.8742 C5            1 RES     
   15296 C5        -371.2677  -235.6882   433.6644 C5            1 RES     
   15297 C5        -371.2267  -236.2183   432.2148 C5            1 RES     
   15298 C5        -369.8066  -236.3787   431.6623 C5            1 RES     
   15299 C5        -373.3871  -231.5154   431.4568 C5            1 RES     
   15300 C5        -372.1512  -231.1309   430.6029 C5            1 RES     
   15301 C5        -372.3212  -231.4608   429.1026 C5            1 RES     
   15302 C5        -373.5106  -230.7490   428.4303 C5            1 RES     
   15303 C5        -373.6557  -231.0835   426.9319 C5            1 RES     
   15304 C5        -372.5004  -230.5409   426.0684 C5            1 RES     
   15305 C5        -372.6444  -230.8765   424.5730 C5            1 RES     
   15306 C5        -373.8689  -230.2397   423.9141 C5            1 RES     
   15307 H6        -374.6969  -219.8407   438.2030 H6            1 RES     
   15308 H6        -373.6970  -219.1623   439.5279 H6            1 RES     
   15309 H6        -374.9662  -220.3850   439.9113 H6            1 RES     
   15310 H6        -372.4033  -220.8656   438.2407 H6            1 RES     
   15311 H6        -372.6496  -221.3393   439.9596 H6            1 RES     
   15312 H6        -372.9367  -223.2809   438.5083 H6            1 RES     
   15313 H6        -374.4782  -222.8753   439.3437 H6            1 RES     
   15314 H6        -373.7988  -222.1494   436.4015 H6            1 RES     
   15315 H6        -375.3511  -221.8130   437.2677 H6            1 RES     
   15316 H6        -374.1523  -224.6001   436.6840 H6            1 RES     
   15317 H6        -375.6343  -224.2573   437.6763 H6            1 RES     
   15318 H6        -376.7735  -223.2280   435.8418 H6            1 RES     
   15319 H6        -375.4083  -223.4835   434.7017 H6            1 RES     
   15320 H6        -376.9245  -225.7136   436.2218 H6            1 RES     
   15321 H6        -377.3705  -225.1355   434.6011 H6            1 RES     
   15322 H6        -374.6087  -225.7035   434.3217 H6            1 RES     
   15323 H6        -375.9787  -226.5169   433.5403 H6            1 RES     
   15324 H6        -374.7785  -227.2227   436.1967 H6            1 RES     
   15325 H6        -377.2121  -227.7774   435.9414 H6            1 RES     
   15326 H6        -376.8229  -228.9833   434.7108 H6            1 RES     
   15327 H6        -375.5279  -230.2627   436.5095 H6            1 RES     
   15328 H6        -375.6538  -228.8169   437.5785 H6            1 RES     
   15329 H6        -378.0776  -230.5047   436.7334 H6            1 RES     
   15330 H6        -378.1086  -228.9501   437.6495 H6            1 RES     
   15331 H6        -376.7291  -231.5238   438.6240 H6            1 RES     
   15332 H6        -376.6063  -229.9032   439.3992 H6            1 RES     
   15333 H6        -379.0367  -229.7843   439.7759 H6            1 RES     
   15334 H6        -378.2580  -231.1809   440.5949 H6            1 RES     
   15335 H6        -379.0724  -232.7207   438.8148 H6            1 RES     
   15336 H6        -379.8959  -231.3322   437.9850 H6            1 RES     
   15337 H6        -380.4186  -231.8374   439.6295 H6            1 RES     
   15338 H6        -373.3513  -227.5469   434.0731 H6            1 RES     
   15339 H6        -374.6517  -228.6443   433.5165 H6            1 RES     
   15340 H6        -372.7042  -229.3369   432.7187 H6            1 RES     
   15341 H6        -371.4769  -230.2083   433.4975 H6            1 RES     
   15342 H6        -374.3071  -231.3875   433.3716 H6            1 RES     
   15343 H6        -372.5949  -232.5691   434.7479 H6            1 RES     
   15344 H6        -373.3447  -233.5652   433.4602 H6            1 RES     
   15345 H6        -371.3224  -233.4278   432.0429 H6            1 RES     
   15346 H6        -370.5769  -232.2868   433.1839 H6            1 RES     
   15347 H6        -369.5475  -234.3828   433.5668 H6            1 RES     
   15348 H6        -370.6129  -234.0726   434.9572 H6            1 RES     
   15349 H6        -372.3228  -235.6519   434.0065 H6            1 RES     
   15350 H6        -370.7320  -236.4193   434.3093 H6            1 RES     
   15351 H6        -371.8107  -235.5605   431.5392 H6            1 RES     
   15352 H6        -371.7103  -237.2190   432.2054 H6            1 RES     
   15353 H6        -369.2089  -237.0514   432.3137 H6            1 RES     
   15354 H6        -369.8522  -236.8217   430.6449 H6            1 RES     
   15355 H6        -369.2947  -235.3983   431.5768 H6            1 RES     
   15356 H6        -374.1901  -230.8086   431.1583 H6            1 RES     
   15357 H6        -373.7374  -232.5390   431.2003 H6            1 RES     
   15358 H6        -371.2429  -231.6596   430.9254 H6            1 RES     
   15359 H6        -371.9398  -230.0485   430.7130 H6            1 RES     
   15360 H6        -371.3777  -231.1607   428.6019 H6            1 RES     
   15361 H6        -372.4413  -232.5602   428.9839 H6            1 RES     
   15362 H6        -373.4203  -229.6485   428.5570 H6            1 RES     
   15363 H6        -374.4465  -231.0839   428.9242 H6            1 RES     
   15364 H6        -373.7420  -232.1850   426.8037 H6            1 RES     
   15365 H6        -374.6033  -230.6186   426.5895 H6            1 RES     
   15366 H6        -371.5449  -230.9923   426.4040 H6            1 RES     
   15367 H6        -372.4290  -229.4381   426.1916 H6            1 RES     
   15368 H6        -371.7411  -230.4951   424.0485 H6            1 RES     
   15369 H6        -372.6826  -231.9789   424.4358 H6            1 RES     
   15370 H6        -374.8102  -230.6333   424.3478 H6            1 RES     
   15371 H6        -373.8695  -230.4820   422.8301 H6            1 RES     
   15372 H6        -373.8394  -229.1358   424.0300 H6            1 RES     
   15373 C0        -377.4371  -220.7582   443.4172 C0            1 RES     
   15374 C0        -377.5666  -220.7530   444.9408 C0            1 RES     
   15375 C0        -377.4050  -221.9954   445.4560 C0            1 RES     
   15376 S1        -377.4758  -222.0352   447.1278 S1            1 RES     
   15377 C0        -377.7285  -220.3539   447.2336 C0            1 RES     
   15378 C0        -377.6977  -219.7953   445.9444 C0            1 RES     
   15379 C0        -377.0462  -222.8966   444.4159 C0            1 RES     
   15380 C0        -376.9909  -222.2229   443.2891 C0            1 RES     
   15381 C0        -376.3723  -223.0010   442.2319 C0            1 RES     
   15382 C0        -376.0288  -224.2629   442.6929 C0            1 RES     
   15383 S1        -376.4570  -224.5790   444.4171 S1            1 RES     
   15384 H2        -377.7138  -218.7389   445.7804 H2            1 RES     
   15385 H2        -376.0737  -222.6229   441.2694 H2            1 RES     
   15386 N3        -378.7545  -217.5537   449.5350 N3            1 RES     
   15387 C0        -378.5439  -218.3049   448.4166 C0            1 RES     
   15388 C0        -377.9223  -219.5682   448.4818 C0            1 RES     
   15389 C0        -377.5408  -220.0234   449.7548 C0            1 RES     
   15390 N3        -376.9287  -221.2136   449.9953 N3            1 RES     
   15391 S1        -376.7048  -221.1766   451.6333 S1            1 RES     
   15392 N3        -377.3446  -219.7236   452.0888 N3            1 RES     
   15393 C0        -377.7631  -219.2148   450.9015 C0            1 RES     
   15394 C0        -378.3767  -217.9757   450.7727 C0            1 RES     
   15395 H4        -378.8945  -217.9262   447.4728 H4            1 RES     
   15396 C5        -376.0151  -212.8254   449.1160 C5            1 RES     
   15397 C5        -375.4391  -214.0769   448.4517 C5            1 RES     
   15398 C5        -376.5095  -215.0171   447.8695 C5            1 RES     
   15399 C5        -377.3636  -214.3851   446.7528 C5            1 RES     
   15400 C5        -378.3659  -215.4115   446.1970 C5            1 RES     
   15401 C5        -379.3865  -214.7852   445.2361 C5            1 RES     
   15402 C5        -380.4418  -215.8052   444.7461 C5            1 RES     
   15403 C5        -379.9705  -216.7449   443.5929 C5            1 RES     
   15404 C5        -379.9529  -218.2743   443.8993 C5            1 RES     
   15405 C5        -381.3592  -218.8165   444.2883 C5            1 RES     
   15406 C5        -381.2819  -220.0969   445.1407 C5            1 RES     
   15407 C5        -382.5838  -220.3243   445.9385 C5            1 RES     
   15408 C5        -382.3982  -221.4288   446.9946 C5            1 RES     
   15409 C5        -383.5497  -221.4971   448.0138 C5            1 RES     
   15410 C5        -384.8873  -221.9035   447.4053 C5            1 RES     
   15411 C5        -379.3002  -218.9932   442.6739 C5            1 RES     
   15412 C0        -378.7822  -220.4817   442.6096 C0            1 RES     
   15413 C5        -378.6135  -220.7884   441.0584 C5            1 RES     
   15414 C5        -379.7567  -221.6573   440.4350 C5            1 RES     
   15415 C5        -379.5341  -223.1973   440.5964 C5            1 RES     
   15416 C5        -378.4573  -223.8162   439.6743 C5            1 RES     
   15417 C5        -378.1305  -225.2891   439.9805 C5            1 RES     
   15418 C5        -379.2292  -226.3029   439.6079 C5            1 RES     
   15419 C5        -379.5701  -226.3748   438.1037 C5            1 RES     
   15420 C5        -378.3760  -226.7589   437.2237 C5            1 RES     
   15421 C5        -380.1307  -221.2472   438.9717 C5            1 RES     
   15422 C5        -378.9699  -220.9935   437.9754 C5            1 RES     
   15423 C5        -379.4484  -220.8081   436.5175 C5            1 RES     
   15424 C5        -380.4159  -219.6264   436.3158 C5            1 RES     
   15425 C5        -380.8724  -219.4528   434.8531 C5            1 RES     
   15426 C5        -379.7356  -219.0291   433.9027 C5            1 RES     
   15427 C5        -380.1911  -218.8578   432.4423 C5            1 RES     
   15428 C5        -381.2144  -217.7386   432.2436 C5            1 RES     
   15429 H6        -376.5319  -212.1830   448.3746 H6            1 RES     
   15430 H6        -375.1882  -212.2319   449.5610 H6            1 RES     
   15431 H6        -376.7242  -213.1046   449.9240 H6            1 RES     
   15432 H6        -374.7272  -213.7757   447.6542 H6            1 RES     
   15433 H6        -374.8732  -214.6424   449.2249 H6            1 RES     
   15434 H6        -375.9889  -215.9114   447.4633 H6            1 RES     
   15435 H6        -377.1751  -215.3518   448.6956 H6            1 RES     
   15436 H6        -376.7130  -214.0184   445.9290 H6            1 RES     
   15437 H6        -377.9278  -213.5279   447.1766 H6            1 RES     
   15438 H6        -377.8165  -216.2415   445.7035 H6            1 RES     
   15439 H6        -378.9460  -215.8018   447.0561 H6            1 RES     
   15440 H6        -379.9244  -214.0039   445.8178 H6            1 RES     
   15441 H6        -378.8955  -214.2877   444.3722 H6            1 RES     
   15442 H6        -380.8369  -216.3444   445.6307 H6            1 RES     
   15443 H6        -381.2883  -215.2164   444.3333 H6            1 RES     
   15444 H6        -378.9397  -216.4303   443.3141 H6            1 RES     
   15445 H6        -380.5971  -216.5598   442.6937 H6            1 RES     
   15446 H6        -379.3394  -218.3197   444.7711 H6            1 RES     
   15447 H6        -381.8294  -218.0676   444.9483 H6            1 RES     
   15448 H6        -382.0392  -218.9191   443.4150 H6            1 RES     
   15449 H6        -381.0036  -220.9789   444.5259 H6            1 RES     
   15450 H6        -380.4912  -219.9350   445.9030 H6            1 RES     
   15451 H6        -383.4309  -220.5486   445.2555 H6            1 RES     
   15452 H6        -382.8154  -219.3872   446.4920 H6            1 RES     
   15453 H6        -382.2461  -222.4125   446.5020 H6            1 RES     
   15454 H6        -381.4851  -221.1928   447.5861 H6            1 RES     
   15455 H6        -383.6600  -220.5108   448.5177 H6            1 RES     
   15456 H6        -383.2823  -222.2459   448.7908 H6            1 RES     
   15457 H6        -384.8026  -222.9033   446.9308 H6            1 RES     
   15458 H6        -385.2263  -221.1599   446.6557 H6            1 RES     
   15459 H6        -385.6510  -221.9559   448.2110 H6            1 RES     
   15460 H6        -378.4134  -218.3959   442.3652 H6            1 RES     
   15461 H6        -380.0687  -218.8703   441.8754 H6            1 RES     
   15462 H6        -378.5937  -219.8175   440.5203 H6            1 RES     
   15463 H6        -377.6289  -221.1869   440.7770 H6            1 RES     
   15464 H6        -380.6780  -221.4320   441.0200 H6            1 RES     
   15465 H6        -379.2801  -223.3960   441.6602 H6            1 RES     
   15466 H6        -380.4906  -223.7188   440.3784 H6            1 RES     
   15467 H6        -378.7573  -223.7472   438.6143 H6            1 RES     
   15468 H6        -377.5231  -223.2478   439.7922 H6            1 RES     
   15469 H6        -377.2049  -225.5650   439.4330 H6            1 RES     
   15470 H6        -377.9008  -225.3887   441.0605 H6            1 RES     
   15471 H6        -380.1533  -226.0731   440.1776 H6            1 RES     
   15472 H6        -378.8817  -227.3104   439.9265 H6            1 RES     
   15473 H6        -379.9913  -225.4116   437.7498 H6            1 RES     
   15474 H6        -380.3547  -227.1505   437.9700 H6            1 RES     
   15475 H6        -377.9504  -227.7324   437.5481 H6            1 RES     
   15476 H6        -378.7082  -226.8533   436.1682 H6            1 RES     
   15477 H6        -377.5851  -225.9819   437.2565 H6            1 RES     
   15478 H6        -380.6871  -220.2881   439.0354 H6            1 RES     
   15479 H6        -380.8332  -222.0092   438.5689 H6            1 RES     
   15480 H6        -378.2529  -221.8264   437.9524 H6            1 RES     
   15481 H6        -378.3981  -220.0958   438.2848 H6            1 RES     
   15482 H6        -378.5389  -220.6527   435.9015 H6            1 RES     
   15483 H6        -379.9420  -221.7444   436.1756 H6            1 RES     
   15484 H6        -379.9487  -218.6830   436.6723 H6            1 RES     
   15485 H6        -381.3309  -219.8139   436.9156 H6            1 RES     
   15486 H6        -381.3365  -220.3977   434.4939 H6            1 RES     
   15487 H6        -381.6501  -218.6613   434.8512 H6            1 RES     
   15488 H6        -378.9471  -219.8086   433.8995 H6            1 RES     
   15489 H6        -379.2858  -218.0773   434.2607 H6            1 RES     
   15490 H6        -379.2954  -218.6096   431.8318 H6            1 RES     
   15491 H6        -380.6118  -219.8144   432.0636 H6            1 RES     
   15492 H6        -382.1622  -217.9605   432.7740 H6            1 RES     
   15493 H6        -381.4472  -217.6427   431.1619 H6            1 RES     
   15494 H6        -380.8041  -216.7719   432.6045 H6            1 RES     
   15495 C0        -378.6615  -213.7769   453.7097 C0            1 RES     
   15496 C0        -378.5669  -214.1815   455.1812 C0            1 RES     
   15497 C0        -378.7563  -215.5132   455.3419 C0            1 RES     
   15498 S1        -378.6012  -216.0189   456.9299 S1            1 RES     
   15499 C0        -378.2641  -214.4422   457.4796 C0            1 RES     
   15500 C0        -378.2307  -213.5631   456.3837 C0            1 RES     
   15501 C0        -378.8665  -216.1334   454.0668 C0            1 RES     
   15502 C0        -378.7493  -215.2035   453.1459 C0            1 RES     
   15503 C0        -378.5788  -215.7792   451.8248 C0            1 RES     
   15504 C0        -378.6125  -217.1640   451.8887 C0            1 RES     
   15505 S1        -378.8751  -217.8371   453.5423 S1            1 RES     
   15506 H2        -377.9181  -212.5451   456.4789 H2            1 RES     
   15507 H2        -378.3097  -215.2360   450.9354 H2            1 RES     
   15508 N3        -377.9691  -212.2680   460.5415 N3            1 RES     
   15509 C0        -378.1787  -212.6864   459.2608 C0            1 RES     
   15510 C0        -378.0090  -214.0349   458.8874 C0            1 RES     
   15511 C0        -377.6257  -214.9307   459.8993 C0            1 RES     
   15512 N3        -377.4161  -216.2610   459.7109 N3            1 RES     
   15513 S1        -376.9652  -216.7695   461.2185 S1            1 RES     
   15514 N3        -377.0160  -215.3949   462.1328 N3            1 RES     
   15515 C0        -377.4040  -214.4647   461.2228 C0            1 RES     
   15516 C0        -377.5832  -213.1220   461.5286 C0            1 RES     
   15517 H4        -378.5125  -211.9656   458.5355 H4            1 RES     
   15518 C5        -373.9032  -208.5942   460.6324 C5            1 RES     
   15519 C5        -373.8743  -209.7056   459.5821 C5            1 RES     
   15520 C5        -375.2665  -210.0935   459.0529 C5            1 RES     
   15521 C5        -376.0101  -208.9489   458.3366 C5            1 RES     
   15522 C5        -377.3636  -209.4425   457.7970 C5            1 RES     
   15523 C5        -378.2425  -208.3020   457.2642 C5            1 RES     
   15524 C5        -379.6342  -208.7941   456.8003 C5            1 RES     
   15525 C5        -379.6681  -209.4480   455.3838 C5            1 RES     
   15526 C5        -380.1163  -210.9404   455.3125 C5            1 RES     
   15527 C5        -381.5536  -211.1543   455.8705 C5            1 RES     
   15528 C5        -381.7869  -212.5957   456.3604 C5            1 RES     
   15529 C5        -382.9650  -212.6709   457.3552 C5            1 RES     
   15530 C5        -383.0104  -214.0416   458.0544 C5            1 RES     
   15531 C5        -383.9643  -214.0785   459.2619 C5            1 RES     
   15532 C5        -385.4323  -213.8957   458.8927 C5            1 RES     
   15533 C5        -379.9178  -211.4224   453.8384 C5            1 RES     
   15534 C0        -379.9377  -212.9096   453.3133 C0            1 RES     
   15535 C5        -380.0996  -212.7834   451.7364 C5            1 RES     
   15536 C5        -381.5419  -213.0736   451.2014 C5            1 RES     
   15537 C5        -381.8227  -214.5909   450.9442 C5            1 RES     
   15538 C5        -381.1529  -215.1895   449.6849 C5            1 RES     
   15539 C5        -381.2940  -216.7172   449.5569 C5            1 RES     
   15540 C5        -382.7076  -217.2257   449.2151 C5            1 RES     
   15541 C5        -383.2604  -216.7554   447.8524 C5            1 RES     
   15542 C5        -382.3974  -217.1848   446.6613 C5            1 RES     
   15543 C5        -381.9598  -212.1655   449.9972 C5            1 RES     
   15544 C5        -380.9325  -211.9684   448.8526 C5            1 RES     
   15545 C5        -381.5216  -211.2378   447.6247 C5            1 RES     
   15546 C5        -382.0603  -209.8267   447.9278 C5            1 RES     
   15547 C5        -382.6335  -209.1117   446.6876 C5            1 RES     
   15548 C5        -381.5658  -208.7660   445.6315 C5            1 RES     
   15549 C5        -382.1385  -208.0540   444.3928 C5            1 RES     
   15550 C5        -382.7495  -206.6852   444.6968 C5            1 RES     
   15551 H6        -374.2759  -207.6448   460.1976 H6            1 RES     
   15552 H6        -372.8724  -208.4145   461.0057 H6            1 RES     
   15553 H6        -374.5440  -208.8865   461.4913 H6            1 RES     
   15554 H6        -373.2220  -209.3971   458.7377 H6            1 RES     
   15555 H6        -373.4257  -210.6078   460.0539 H6            1 RES     
   15556 H6        -375.1346  -210.9384   458.3426 H6            1 RES     
   15557 H6        -375.8827  -210.4540   459.9060 H6            1 RES     
   15558 H6        -375.3969  -208.5557   457.4965 H6            1 RES     
   15559 H6        -376.1925  -208.1309   459.0648 H6            1 RES     
   15560 H6        -377.1957  -210.2112   457.0126 H6            1 RES     
   15561 H6        -377.9139  -209.8875   458.6491 H6            1 RES     
   15562 H6        -378.4034  -207.6069   458.1181 H6            1 RES     
   15563 H6        -377.7405  -207.7325   456.4526 H6            1 RES     
   15564 H6        -380.0576  -209.4346   457.6001 H6            1 RES     
   15565 H6        -380.2863  -207.8971   456.7380 H6            1 RES     
   15566 H6        -378.6412  -209.3687   454.9614 H6            1 RES     
   15567 H6        -380.3173  -208.8395   454.7176 H6            1 RES     
   15568 H6        -379.4368  -211.4095   455.9883 H6            1 RES     
   15569 H6        -381.6511  -210.5308   456.7757 H6            1 RES     
   15570 H6        -382.3444  -210.8013   455.1738 H6            1 RES     
   15571 H6        -381.9063  -213.3001   455.5102 H6            1 RES     
   15572 H6        -380.8888  -212.8931   456.9412 H6            1 RES     
   15573 H6        -383.9255  -212.4378   456.8476 H6            1 RES     
   15574 H6        -382.7924  -211.9112   458.1498 H6            1 RES     
   15575 H6        -383.2641  -214.8392   457.3244 H6            1 RES     
   15576 H6        -381.9974  -214.2557   458.4633 H6            1 RES     
   15577 H6        -383.6692  -213.2935   459.9937 H6            1 RES     
   15578 H6        -383.8544  -215.0653   459.7617 H6            1 RES     
   15579 H6        -385.7516  -214.6944   458.1913 H6            1 RES     
   15580 H6        -385.6068  -212.9014   458.4337 H6            1 RES     
   15581 H6        -386.0491  -213.9646   459.8146 H6            1 RES     
   15582 H6        -378.9357  -211.0355   453.4862 H6            1 RES     
   15583 H6        -380.7059  -210.8602   453.2850 H6            1 RES     
   15584 H6        -379.8344  -211.7441   451.4497 H6            1 RES     
   15585 H6        -379.3529  -213.3421   451.1553 H6            1 RES     
   15586 H6        -382.2445  -212.7799   452.0149 H6            1 RES     
   15587 H6        -381.5025  -215.1553   451.8468 H6            1 RES     
   15588 H6        -382.9186  -214.7348   450.8317 H6            1 RES     
   15589 H6        -381.5584  -214.7319   448.7660 H6            1 RES     
   15590 H6        -380.0763  -214.9673   449.7187 H6            1 RES     
   15591 H6        -380.5989  -217.0694   448.7660 H6            1 RES     
   15592 H6        -380.9614  -217.1889   450.5034 H6            1 RES     
   15593 H6        -383.4135  -216.9226   450.0159 H6            1 RES     
   15594 H6        -382.6731  -218.3375   449.2029 H6            1 RES     
   15595 H6        -383.3832  -215.6531   447.8374 H6            1 RES     
   15596 H6        -384.2684  -217.2047   447.7215 H6            1 RES     
   15597 H6        -382.2780  -218.2891   446.6449 H6            1 RES     
   15598 H6        -382.8866  -216.8687   445.7157 H6            1 RES     
   15599 H6        -381.3971  -216.7066   446.6956 H6            1 RES     
   15600 H6        -382.1516  -211.1511   450.4068 H6            1 RES     
   15601 H6        -382.9245  -212.5465   449.5966 H6            1 RES     
   15602 H6        -380.5432  -212.9246   448.4748 H6            1 RES     
   15603 H6        -380.0577  -211.3994   449.2261 H6            1 RES     
   15604 H6        -380.7080  -211.1713   446.8734 H6            1 RES     
   15605 H6        -382.3408  -211.8547   447.1938 H6            1 RES     
   15606 H6        -381.2613  -209.2002   448.3801 H6            1 RES     
   15607 H6        -382.8919  -209.9163   448.6575 H6            1 RES     
   15608 H6        -383.4304  -209.7397   446.2318 H6            1 RES     
   15609 H6        -383.0966  -208.1691   447.0459 H6            1 RES     
   15610 H6        -381.0894  -209.6992   445.2689 H6            1 RES     
   15611 H6        -380.7801  -208.1274   446.0911 H6            1 RES     
   15612 H6        -381.3062  -207.9004   443.6715 H6            1 RES     
   15613 H6        -382.9016  -208.6992   443.9060 H6            1 RES     
   15614 H6        -383.6330  -206.7767   445.3601 H6            1 RES     
   15615 H6        -383.0866  -206.2155   443.7484 H6            1 RES     
   15616 H6        -381.9954  -206.0227   445.1714 H6            1 RES     
   15617 C0        -376.0435  -210.0639   465.3515 C0            1 RES     
   15618 C0        -375.8832  -210.8909   466.6276 C0            1 RES     
   15619 C0        -376.4794  -212.1018   466.5112 C0            1 RES     
   15620 S1        -376.2799  -213.0723   467.8603 S1            1 RES     
   15621 C0        -375.3650  -211.8869   468.6725 C0            1 RES     
   15622 C0        -375.1957  -210.7721   467.8337 C0            1 RES     
   15623 C0        -376.9668  -212.2645   465.1851 C0            1 RES     
   15624 C0        -376.6780  -211.1781   464.5048 C0            1 RES     
   15625 C0        -376.8952  -211.3656   463.0823 C0            1 RES     
   15626 C0        -377.3773  -212.6405   462.8270 C0            1 RES     
   15627 S1        -377.6138  -213.6657   464.2930 S1            1 RES     
   15628 H2        -374.5529  -209.9575   468.0911 H2            1 RES     
   15629 H2        -376.5885  -210.6846   462.3073 H2            1 RES     
   15630 N3        -373.9389  -210.8788   472.0101 N3            1 RES     
   15631 C0        -374.4529  -210.8275   470.7482 C0            1 RES     
   15632 C0        -374.7945  -211.9984   470.0418 C0            1 RES     
   15633 C0        -374.5924  -213.2210   470.7034 C0            1 RES     
   15634 N3        -374.8648  -214.4406   470.1672 N3            1 RES     
   15635 S1        -374.4016  -215.4733   471.3730 S1            1 RES     
   15636 N3        -373.8645  -214.4703   472.5703 N3            1 RES     
   15637 C0        -374.0453  -213.2447   472.0142 C0            1 RES     
   15638 C0        -373.7240  -212.0567   472.6574 C0            1 RES     
   15639 H4        -374.6267  -209.8625   470.3056 H4            1 RES     
   15640 C5        -368.9140  -208.6911   472.0382 C5            1 RES     
   15641 C5        -369.4032  -209.4075   470.7786 C5            1 RES     
   15642 C5        -370.9048  -209.2158   470.5010 C5            1 RES     
   15643 C5        -371.3190  -207.7510   470.2584 C5            1 RES     
   15644 C5        -372.8212  -207.6636   469.9376 C5            1 RES     
   15645 C5        -373.3371  -206.2181   469.8980 C5            1 RES     
   15646 C5        -374.8637  -206.1408   469.6577 C5            1 RES     
   15647 C5        -375.3110  -206.3144   468.1728 C5            1 RES     
   15648 C5        -376.2344  -207.5314   467.8578 C5            1 RES     
   15649 C5        -377.5679  -207.4861   468.6594 C5            1 RES     
   15650 C5        -378.1953  -208.8812   468.8387 C5            1 RES     
   15651 C5        -379.1798  -208.9098   470.0275 C5            1 RES     
   15652 C5        -379.5790  -210.3544   470.3789 C5            1 RES     
   15653 C5        -380.3118  -210.4732   471.7274 C5            1 RES     
   15654 C5        -381.6722  -209.7853   471.7516 C5            1 RES     
   15655 C5        -376.4159  -207.5964   466.3062 C5            1 RES     
   15656 C0        -377.0017  -208.7964   465.4666 C0            1 RES     
   15657 C5        -377.3320  -208.1741   464.0410 C5            1 RES     
   15658 C5        -378.8487  -207.8772   463.7920 C5            1 RES     
   15659 C5        -379.6503  -209.1097   463.2576 C5            1 RES     
   15660 C5        -379.4007  -209.4766   461.7758 C5            1 RES     
   15661 C5        -380.0573  -210.7957   461.3297 C5            1 RES     
   15662 C5        -381.5926  -210.7630   461.2061 C5            1 RES     
   15663 C5        -382.1433  -209.7789   460.1514 C5            1 RES     
   15664 C5        -381.6478  -210.0655   458.7301 C5            1 RES     
   15665 C5        -379.1059  -206.5773   462.9593 C5            1 RES     
   15666 C5        -378.2427  -206.3512   461.6912 C5            1 RES     
   15667 C5        -378.7220  -205.1585   460.8331 C5            1 RES     
   15668 C5        -378.7136  -203.8060   461.5707 C5            1 RES     
   15669 C5        -379.1849  -202.6284   460.6937 C5            1 RES     
   15670 C5        -378.2222  -202.3037   459.5350 C5            1 RES     
   15671 C5        -378.6938  -201.1293   458.6586 C5            1 RES     
   15672 C5        -378.7669  -199.7955   459.4034 C5            1 RES     
   15673 H6        -369.0076  -207.5912   471.9326 H6            1 RES     
   15674 H6        -367.8405  -208.9259   472.2011 H6            1 RES     
   15675 H6        -369.4884  -209.0293   472.9267 H6            1 RES     
   15676 H6        -368.8107  -209.0619   469.9050 H6            1 RES     
   15677 H6        -369.2180  -210.4964   470.9131 H6            1 RES     
   15678 H6        -371.1618  -209.8172   469.6021 H6            1 RES     
   15679 H6        -371.4796  -209.6216   471.3627 H6            1 RES     
   15680 H6        -370.7343  -207.3182   469.4174 H6            1 RES     
   15681 H6        -371.1155  -207.1651   471.1793 H6            1 RES     
   15682 H6        -373.0297  -208.1838   468.9782 H6            1 RES     
   15683 H6        -373.3627  -208.1649   470.7636 H6            1 RES     
   15684 H6        -373.1368  -205.7875   470.9042 H6            1 RES     
   15685 H6        -372.7936  -205.6014   469.1502 H6            1 RES     
   15686 H6        -375.3592  -206.8412   470.3600 H6            1 RES     
   15687 H6        -375.1831  -205.1194   469.9552 H6            1 RES     
   15688 H6        -374.3860  -206.4071   467.5604 H6            1 RES     
   15689 H6        -375.8080  -205.3807   467.8310 H6            1 RES     
   15690 H6        -375.6615  -208.3490   468.2344 H6            1 RES     
   15691 H6        -377.3251  -207.1537   469.6832 H6            1 RES     
   15692 H6        -378.2862  -206.7372   468.2609 H6            1 RES     
   15693 H6        -378.6596  -209.2426   467.8969 H6            1 RES     
   15694 H6        -377.3748  -209.5755   469.1163 H6            1 RES     
   15695 H6        -380.0695  -208.2782   469.8182 H6            1 RES     
   15696 H6        -378.6552  -208.4965   470.9177 H6            1 RES     
   15697 H6        -380.1827  -210.7984   469.5594 H6            1 RES     
   15698 H6        -378.6477  -210.9545   470.4875 H6            1 RES     
   15699 H6        -379.6734  -210.0529   472.5364 H6            1 RES     
   15700 H6        -380.4668  -211.5523   471.9449 H6            1 RES     
   15701 H6        -382.3336  -210.2203   470.9735 H6            1 RES     
   15702 H6        -381.5694  -208.6932   471.5889 H6            1 RES     
   15703 H6        -382.1413  -209.9446   472.7464 H6            1 RES     
   15704 H6        -375.4208  -207.4159   465.8422 H6            1 RES     
   15705 H6        -377.0421  -206.6991   466.0915 H6            1 RES     
   15706 H6        -376.7798  -207.2149   463.9528 H6            1 RES     
   15707 H6        -376.9023  -208.7246   463.1927 H6            1 RES     
   15708 H6        -379.2925  -207.6492   464.7884 H6            1 RES     
   15709 H6        -379.4124  -209.9797   463.9074 H6            1 RES     
   15710 H6        -380.7361  -208.9001   463.3645 H6            1 RES     
   15711 H6        -379.7560  -208.6755   461.1048 H6            1 RES     
   15712 H6        -378.3179  -209.5861   461.6171 H6            1 RES     
   15713 H6        -379.6366  -211.0816   460.3428 H6            1 RES     
   15714 H6        -379.7709  -211.5973   462.0400 H6            1 RES     
   15715 H6        -382.0383  -210.5218   462.1933 H6            1 RES     
   15716 H6        -381.9312  -211.7852   460.9271 H6            1 RES     
   15717 H6        -381.8941  -208.7326   460.4224 H6            1 RES     
   15718 H6        -383.2511  -209.8678   460.1498 H6            1 RES     
   15719 H6        -381.9052  -211.1035   458.4298 H6            1 RES     
   15720 H6        -382.1318  -209.3623   458.0197 H6            1 RES     
   15721 H6        -380.5511  -209.9198   458.6490 H6            1 RES     
   15722 H6        -378.8907  -205.7162   463.6268 H6            1 RES     
   15723 H6        -380.1885  -206.5370   462.7086 H6            1 RES     
   15724 H6        -378.2500  -207.2240   461.0228 H6            1 RES     
   15725 H6        -377.1855  -206.1864   461.9803 H6            1 RES     
   15726 H6        -378.0462  -205.1065   459.9547 H6            1 RES     
   15727 H6        -379.7513  -205.3658   460.4659 H6            1 RES     
   15728 H6        -377.6970  -203.5905   461.9648 H6            1 RES     
   15729 H6        -379.4168  -203.8676   462.4273 H6            1 RES     
   15730 H6        -380.2007  -202.8449   460.2954 H6            1 RES     
   15731 H6        -379.2538  -201.7415   461.3570 H6            1 RES     
   15732 H6        -378.1384  -203.1844   458.8667 H6            1 RES     
   15733 H6        -377.2129  -202.0754   459.9419 H6            1 RES     
   15734 H6        -377.9676  -201.0120   457.8247 H6            1 RES     
   15735 H6        -379.6880  -201.3620   458.2193 H6            1 RES     
   15736 H6        -379.5284  -199.8249   460.2085 H6            1 RES     
   15737 H6        -379.0584  -198.9939   458.6920 H6            1 RES     
   15738 H6        -377.7770  -199.5410   459.8373 H6            1 RES     
   15739 C0        -370.7367  -210.8134   476.6408 C0            1 RES     
   15740 C0        -370.6828  -211.9877   477.6186 C0            1 RES     
   15741 C0        -371.6571  -212.8927   477.3600 C0            1 RES     
   15742 S1        -371.6040  -214.2306   478.3645 S1            1 RES     
   15743 C0        -370.2432  -213.6421   479.2035 C0            1 RES     
   15744 C0        -369.8329  -212.4254   478.6324 C0            1 RES     
   15745 C0        -372.3517  -212.5163   476.1775 C0            1 RES     
   15746 C0        -371.8171  -211.4055   475.7226 C0            1 RES     
   15747 C0        -372.2814  -211.0996   474.3823 C0            1 RES     
   15748 C0        -373.1900  -212.0544   473.9516 C0            1 RES     
   15749 S1        -373.5454  -213.3539   475.1521 S1            1 RES     
   15750 H2        -368.9268  -211.9370   478.9212 H2            1 RES     
   15751 H2        -371.8780  -210.3365   473.7392 H2            1 RES     
   15752 N3        -368.1103  -214.0984   482.2747 N3            1 RES     
   15753 C0        -368.7497  -213.5377   481.2088 C0            1 RES     
   15754 C0        -369.5560  -214.3051   480.3442 C0            1 RES     
   15755 C0        -369.6806  -215.6729   480.6389 C0            1 RES     
   15756 N3        -370.4146  -216.5541   479.9083 N3            1 RES     
   15757 S1        -370.1562  -217.9810   480.7033 S1            1 RES     
   15758 N3        -369.1544  -217.5657   481.9491 N3            1 RES     
   15759 C0        -368.9943  -216.2321   481.7500 C0            1 RES     
   15760 C0        -368.2101  -215.4248   482.5635 C0            1 RES     
   15761 H4        -368.6536  -212.4775   481.0547 H4            1 RES     
   15762 C5        -362.6929  -213.5202   481.6803 C5            1 RES     
   15763 C5        -363.5637  -213.6688   480.4317 C5            1 RES     
   15764 C5        -364.9397  -212.9901   480.5522 C5            1 RES     
   15765 C5        -364.8739  -211.4639   480.7581 C5            1 RES     
   15766 C5        -366.2911  -210.8677   480.8134 C5            1 RES     
   15767 C5        -366.2983  -209.3900   481.2298 C5            1 RES     
   15768 C5        -367.7304  -208.8197   481.3645 C5            1 RES     
   15769 C5        -368.4134  -208.4181   480.0202 C5            1 RES     
   15770 C5        -369.7229  -209.1786   479.6459 C5            1 RES     
   15771 C5        -370.8394  -208.9967   480.7152 C5            1 RES     
   15772 C5        -371.8626  -210.1478   480.7003 C5            1 RES     
   15773 C5        -372.6237  -210.2450   482.0398 C5            1 RES     
   15774 C5        -373.4263  -211.5559   482.1248 C5            1 RES     
   15775 C5        -373.9602  -211.8530   483.5376 C5            1 RES     
   15776 C5        -374.9976  -210.8489   484.0276 C5            1 RES     
   15777 C5        -370.1313  -208.7329   478.2040 C5            1 RES     
   15778 C0        -371.1938  -209.4192   477.2616 C0            1 RES     
   15779 C5        -371.4952  -208.3404   476.1328 C5            1 RES     
   15780 C5        -372.8464  -207.5697   476.3083 C5            1 RES     
   15781 C5        -374.0781  -208.3144   475.6956 C5            1 RES     
   15782 C5        -374.1749  -208.2863   474.1520 C5            1 RES     
   15783 C5        -375.2877  -209.1766   473.5699 C5            1 RES     
   15784 C5        -376.7264  -208.6789   473.8065 C5            1 RES     
   15785 C5        -377.0613  -207.3160   473.1628 C5            1 RES     
   15786 C5        -376.8935  -207.3013   471.6398 C5            1 RES     
   15787 C5        -372.7717  -206.0657   475.8822 C5            1 RES     
   15788 C5        -372.0692  -205.7306   474.5411 C5            1 RES     
   15789 C5        -372.2407  -204.2547   474.1159 C5            1 RES     
   15790 C5        -371.6806  -203.2368   475.1276 C5            1 RES     
   15791 C5        -371.8524  -201.7714   474.6793 C5            1 RES     
   15792 C5        -371.0090  -201.4062   473.4422 C5            1 RES     
   15793 C5        -371.1821  -199.9438   472.9937 C5            1 RES     
   15794 C5        -370.7031  -198.9223   474.0262 C5            1 RES     
   15795 H6        -362.4300  -212.4578   481.8583 H6            1 RES     
   15796 H6        -361.7466  -214.0843   481.5377 H6            1 RES     
   15797 H6        -363.2164  -213.9277   482.5711 H6            1 RES     
   15798 H6        -363.0188  -213.2639   479.5527 H6            1 RES     
   15799 H6        -363.7334  -214.7554   480.2629 H6            1 RES     
   15800 H6        -365.5051  -213.2045   479.6194 H6            1 RES     
   15801 H6        -365.4898  -213.4515   481.4020 H6            1 RES     
   15802 H6        -364.3028  -210.9866   479.9320 H6            1 RES     
   15803 H6        -364.3605  -211.2551   481.7202 H6            1 RES     
   15804 H6        -366.7928  -211.0038   479.8315 H6            1 RES     
   15805 H6        -366.8468  -211.4154   481.5997 H6            1 RES     
   15806 H6        -365.8274  -209.3472   482.2371 H6            1 RES     
   15807 H6        -365.6914  -208.7603   480.5442 H6            1 RES     
   15808 H6        -368.3266  -209.5260   481.9769 H6            1 RES     
   15809 H6        -367.6475  -207.8835   481.9564 H6            1 RES     
   15810 H6        -367.6671  -208.5837   479.2109 H6            1 RES     
   15811 H6        -368.6151  -207.3250   480.0269 H6            1 RES     
   15812 H6        -369.4070  -210.1971   479.6822 H6            1 RES     
   15813 H6        -370.3590  -209.0608   481.7065 H6            1 RES     
   15814 H6        -371.3167  -207.9937   480.6750 H6            1 RES     
   15815 H6        -372.5477  -210.0720   479.8296 H6            1 RES     
   15816 H6        -371.2886  -211.0943   480.6158 H6            1 RES     
   15817 H6        -373.2734  -209.3563   482.1898 H6            1 RES     
   15818 H6        -371.8724  -210.2753   482.8602 H6            1 RES     
   15819 H6        -374.2518  -211.5521   481.3819 H6            1 RES     
   15820 H6        -372.7415  -212.3980   481.8776 H6            1 RES     
   15821 H6        -373.1118  -211.8851   484.2572 H6            1 RES     
   15822 H6        -374.4325  -212.8593   483.5263 H6            1 RES     
   15823 H6        -375.8680  -210.8327   483.3390 H6            1 RES     
   15824 H6        -374.5620  -209.8320   484.1056 H6            1 RES     
   15825 H6        -375.3486  -211.1536   485.0371 H6            1 RES     
   15826 H6        -369.2082  -208.7120   477.5831 H6            1 RES     
   15827 H6        -370.4478  -207.6738   478.3516 H6            1 RES     
   15828 H6        -370.6741  -207.5932   476.1490 H6            1 RES     
   15829 H6        -371.3960  -208.7161   475.1050 H6            1 RES     
   15830 H6        -373.0451  -207.5281   477.4040 H6            1 RES     
   15831 H6        -374.0539  -209.3665   476.0535 H6            1 RES     
   15832 H6        -375.0065  -207.8487   476.0902 H6            1 RES     
   15833 H6        -374.3345  -207.2578   473.7845 H6            1 RES     
   15834 H6        -373.2234  -208.6444   473.7324 H6            1 RES     
   15835 H6        -375.1286  -209.2674   472.4749 H6            1 RES     
   15836 H6        -375.1870  -210.1977   473.9900 H6            1 RES     
   15837 H6        -376.9237  -208.6220   474.8970 H6            1 RES     
   15838 H6        -377.4207  -209.4362   473.3801 H6            1 RES     
   15839 H6        -376.4436  -206.5091   473.6073 H6            1 RES     
   15840 H6        -378.1245  -207.0852   473.3900 H6            1 RES     
   15841 H6        -377.5203  -208.0897   471.1713 H6            1 RES     
   15842 H6        -377.2112  -206.3147   471.2411 H6            1 RES     
   15843 H6        -375.8335  -207.4528   471.3500 H6            1 RES     
   15844 H6        -372.1915  -205.5344   476.6662 H6            1 RES     
   15845 H6        -373.8033  -205.6511   475.8983 H6            1 RES     
   15846 H6        -372.4593  -206.3307   473.7067 H6            1 RES     
   15847 H6        -370.9877  -205.9619   474.6149 H6            1 RES     
   15848 H6        -371.7163  -204.1402   473.1450 H6            1 RES     
   15849 H6        -373.3212  -204.0473   473.9521 H6            1 RES     
   15850 H6        -370.6054  -203.4410   475.3217 H6            1 RES     
   15851 H6        -372.2369  -203.3460   476.0819 H6            1 RES     
   15852 H6        -372.9276  -201.5670   474.4808 H6            1 RES     
   15853 H6        -371.5293  -201.1355   475.5294 H6            1 RES     
   15854 H6        -371.3168  -202.0391   472.5855 H6            1 RES     
   15855 H6        -369.9347  -201.6005   473.6530 H6            1 RES     
   15856 H6        -370.5826  -199.7968   472.0688 H6            1 RES     
   15857 H6        -372.2483  -199.7484   472.7478 H6            1 RES     
   15858 H6        -371.3103  -198.9705   474.9525 H6            1 RES     
   15859 H6        -370.8087  -197.8995   473.6062 H6            1 RES     
   15860 H6        -369.6343  -199.0949   474.2731 H6            1 RES     
   15861 C0        -364.4523  -216.2942   485.9488 C0            1 RES     
   15862 C0        -364.6546  -217.6687   486.5872 C0            1 RES     
   15863 C0        -365.9001  -218.1462   486.3508 C0            1 RES     
   15864 S1        -366.1538  -219.6778   486.9765 S1            1 RES     
   15865 C0        -364.5714  -219.7682   487.6010 C0            1 RES     
   15866 C0        -363.8650  -218.6044   487.2525 C0            1 RES     
   15867 C0        -366.5890  -217.2608   485.4766 C0            1 RES     
   15868 C0        -365.7853  -216.2628   485.1854 C0            1 RES     
   15869 C0        -366.3049  -215.4605   484.0936 C0            1 RES     
   15870 C0        -367.5298  -215.9516   483.6679 C0            1 RES     
   15871 S1        -368.1242  -217.3906   484.5800 S1            1 RES     
   15872 H2        -362.8171  -218.4974   487.4357 H2            1 RES     
   15873 H2        -365.7654  -214.6883   483.5726 H2            1 RES     
   15874 N3        -362.3027  -221.6837   489.9190 N3            1 RES     
   15875 C0        -362.8625  -220.6796   489.1858 C0            1 RES     
   15876 C0        -363.9905  -220.9012   488.3703 C0            1 RES     
   15877 C0        -364.5194  -222.2025   488.3577 C0            1 RES     
   15878 N3        -365.5990  -222.5876   487.6261 N3            1 RES     
   15879 S1        -365.7201  -224.1970   487.9867 S1            1 RES     
   15880 N3        -364.4731  -224.4637   489.0364 N3            1 RES     
   15881 C0        -363.9090  -223.2316   489.1235 C0            1 RES     
   15882 C0        -362.7954  -222.9524   489.9048 C0            1 RES     
   15883 H4        -362.4425  -219.6925   489.2660 H4            1 RES     
   15884 C5        -357.1405  -222.5046   488.2714 C5            1 RES     
   15885 C5        -358.1772  -222.0303   487.2519 C5            1 RES     
   15886 C5        -359.2186  -221.0583   487.8343 C5            1 RES     
   15887 C5        -358.6218  -219.7421   488.3707 C5            1 RES     
   15888 C5        -359.7383  -218.8150   488.8815 C5            1 RES     
   15889 C5        -359.1961  -217.5842   489.6221 C5            1 RES     
   15890 C5        -360.3239  -216.6998   490.2053 C5            1 RES     
   15891 C5        -361.0162  -215.7473   489.1814 C5            1 RES     
   15892 C5        -362.5426  -215.9645   488.9447 C5            1 RES     
   15893 C5        -363.3739  -215.7973   490.2501 C5            1 RES     
   15894 C5        -364.7124  -216.5572   490.1977 C5            1 RES     
   15895 C5        -365.2669  -216.8240   491.6135 C5            1 RES     
   15896 C5        -366.4387  -217.8213   491.5685 C5            1 RES     
   15897 C5        -366.8373  -218.3561   492.9558 C5            1 RES     
   15898 C5        -367.4031  -217.2901   493.8875 C5            1 RES     
   15899 C5        -362.9779  -215.0204   487.7770 C5            1 RES     
   15900 C0        -364.3288  -215.0731   486.9646 C0            1 RES     
   15901 C5        -364.4102  -213.6721   486.2167 C5            1 RES     
   15902 C5        -365.3903  -212.6391   486.8671 C5            1 RES     
   15903 C5        -366.8724  -212.7940   486.3911 C5            1 RES     
   15904 C5        -367.1697  -212.2894   484.9594 C5            1 RES     
   15905 C5        -368.5850  -212.6199   484.4515 C5            1 RES     
   15906 C5        -369.7286  -211.8297   485.1156 C5            1 RES     
   15907 C5        -369.6790  -210.3015   484.9005 C5            1 RES     
   15908 C5        -369.7310  -209.8896   483.4255 C5            1 RES     
   15909 C5        -364.8812  -211.1608   486.7985 C5            1 RES     
   15910 C5        -364.3027  -210.6597   485.4499 C5            1 RES     
   15911 C5        -364.0324  -209.1381   485.4311 C5            1 RES     
   15912 C5        -363.0303  -208.6614   486.4996 C5            1 RES     
   15913 C5        -362.7670  -207.1425   486.4565 C5            1 RES     
   15914 C5        -362.0325  -206.6839   485.1817 C5            1 RES     
   15915 C5        -361.7715  -205.1675   485.1380 C5            1 RES     
   15916 C5        -360.8408  -204.6707   486.2453 C5            1 RES     
   15917 H6        -356.5177  -221.6597   488.6287 H6            1 RES     
   15918 H6        -356.4650  -223.2446   487.7916 H6            1 RES     
   15919 H6        -357.6392  -222.9906   489.1368 H6            1 RES     
   15920 H6        -357.6577  -221.5562   486.3922 H6            1 RES     
   15921 H6        -358.7198  -222.9262   486.8767 H6            1 RES     
   15922 H6        -359.9480  -220.8222   487.0293 H6            1 RES     
   15923 H6        -359.7658  -221.5739   488.6542 H6            1 RES     
   15924 H6        -358.0465  -219.2248   487.5721 H6            1 RES     
   15925 H6        -357.9388  -219.9773   489.2138 H6            1 RES     
   15926 H6        -360.3891  -218.5109   488.0339 H6            1 RES     
   15927 H6        -360.3282  -219.3893   489.6225 H6            1 RES     
   15928 H6        -358.6014  -217.9723   490.4788 H6            1 RES     
   15929 H6        -358.5171  -216.9787   488.9839 H6            1 RES     
   15930 H6        -361.0286  -217.3568   490.7538 H6            1 RES     
   15931 H6        -359.8528  -216.0406   490.9651 H6            1 RES     
   15932 H6        -360.4885  -215.8716   488.2091 H6            1 RES     
   15933 H6        -360.8406  -214.6934   489.4884 H6            1 RES     
   15934 H6        -362.5809  -216.9948   488.6700 H6            1 RES     
   15935 H6        -362.8080  -216.2810   491.0646 H6            1 RES     
   15936 H6        -363.4919  -214.7346   490.5539 H6            1 RES     
   15937 H6        -365.4485  -216.0405   489.5461 H6            1 RES     
   15938 H6        -364.5030  -217.5590   489.7674 H6            1 RES     
   15939 H6        -365.5570  -215.8730   492.1092 H6            1 RES     
   15940 H6        -364.4611  -217.3031   492.2132 H6            1 RES     
   15941 H6        -367.3117  -217.3683   491.0526 H6            1 RES     
   15942 H6        -366.1141  -218.7111   490.9837 H6            1 RES     
   15943 H6        -365.9556  -218.8347   493.4378 H6            1 RES     
   15944 H6        -367.6134  -219.1397   492.8164 H6            1 RES     
   15945 H6        -368.3062  -216.8290   493.4360 H6            1 RES     
   15946 H6        -366.6483  -216.5060   494.1006 H6            1 RES     
   15947 H6        -367.6901  -217.7653   494.8502 H6            1 RES     
   15948 H6        -362.1968  -215.0792   486.9865 H6            1 RES     
   15949 H6        -362.9008  -214.0067   488.2351 H6            1 RES     
   15950 H6        -363.3940  -213.2248   486.2216 H6            1 RES     
   15951 H6        -364.5865  -213.7426   485.1345 H6            1 RES     
   15952 H6        -365.4082  -212.8658   487.9580 H6            1 RES     
   15953 H6        -367.1488  -213.8672   486.4784 H6            1 RES     
   15954 H6        -367.5285  -212.2229   487.0822 H6            1 RES     
   15955 H6        -367.0288  -211.1970   484.8879 H6            1 RES     
   15956 H6        -366.4598  -212.7615   484.2645 H6            1 RES     
   15957 H6        -368.6202  -212.4272   483.3587 H6            1 RES     
   15958 H6        -368.7710  -213.7043   484.5877 H6            1 RES     
   15959 H6        -369.7409  -212.0413   486.2049 H6            1 RES     
   15960 H6        -370.6874  -212.2019   484.6918 H6            1 RES     
   15961 H6        -368.7726  -209.8678   485.3703 H6            1 RES     
   15962 H6        -370.5623  -209.8581   485.4088 H6            1 RES     
   15963 H6        -370.6431  -210.2969   482.9394 H6            1 RES     
   15964 H6        -369.7559  -208.7819   483.3504 H6            1 RES     
   15965 H6        -368.8332  -210.2413   482.8773 H6            1 RES     
   15966 H6        -364.0537  -211.0679   487.5335 H6            1 RES     
   15967 H6        -365.7036  -210.4965   487.1430 H6            1 RES     
   15968 H6        -364.9828  -210.8542   484.6084 H6            1 RES     
   15969 H6        -363.3602  -211.1967   485.2221 H6            1 RES     
   15970 H6        -363.6414  -208.8968   484.4213 H6            1 RES     
   15971 H6        -364.9945  -208.5968   485.5680 H6            1 RES     
   15972 H6        -362.0679  -209.2071   486.3934 H6            1 RES     
   15973 H6        -363.4517  -208.8840   487.5021 H6            1 RES     
   15974 H6        -363.7300  -206.5954   486.5586 H6            1 RES     
   15975 H6        -362.1354  -206.9011   487.3363 H6            1 RES     
   15976 H6        -362.6498  -206.9252   484.2928 H6            1 RES     
   15977 H6        -361.0653  -207.2253   485.0937 H6            1 RES     
   15978 H6        -361.2931  -204.9310   484.1624 H6            1 RES     
   15979 H6        -362.7357  -204.6171   485.1912 H6            1 RES     
   15980 H6        -361.2934  -204.8151   487.2469 H6            1 RES     
   15981 H6        -360.6588  -203.5833   486.1107 H6            1 RES     
   15982 H6        -359.8666  -205.2012   486.1977 H6            1 RES     
   15983 C0        -359.1039  -225.7943   492.0574 C0            1 RES     
   15984 C0        -359.6594  -227.1805   492.3859 C0            1 RES     
   15985 C0        -361.0129  -227.1975   492.3313 C0            1 RES     
   15986 S1        -361.6701  -228.7090   492.6225 S1            1 RES     
   15987 C0        -360.1365  -229.4193   492.8357 C0            1 RES     
   15988 C0        -359.1401  -228.4524   492.6187 C0            1 RES     
   15989 C0        -361.4841  -225.9388   491.8663 C0            1 RES     
   15990 C0        -360.4441  -225.1674   491.6429 C0            1 RES     
   15991 C0        -360.8155  -223.9685   490.9146 C0            1 RES     
   15992 C0        -362.1808  -223.9484   490.6732 C0            1 RES     
   15993 S1        -363.0851  -225.3633   491.3338 S1            1 RES     
   15994 H2        -358.1014  -228.7028   492.5810 H2            1 RES     
   15995 H2        -360.1291  -223.2620   490.4806 H2            1 RES     
   15996 N3        -358.3308  -232.4863   494.0698 N3            1 RES     
   15997 C0        -358.6226  -231.1966   493.7369 C0            1 RES     
   15998 C0        -359.8627  -230.8433   493.1680 C0            1 RES     
   15999 C0        -360.7898  -231.8802   492.9712 C0            1 RES     
   16000 N3        -362.0273  -231.7145   492.4325 N3            1 RES     
   16001 S1        -362.6238  -233.2569   492.4249 S1            1 RES     
   16002 N3        -361.4019  -234.1585   493.0746 N3            1 RES     
   16003 C0        -360.4546  -233.2165   493.3177 C0            1 RES     
   16004 C0        -359.2136  -233.5031   493.8711 C0            1 RES     
   16005 H4        -357.8920  -230.4360   493.9487 H4            1 RES     
   16006 C5        -354.0188  -234.2060   491.1568 C5            1 RES     
   16007 C5        -354.9714  -233.1826   490.5367 C5            1 RES     
   16008 C5        -355.5386  -232.1718   491.5493 C5            1 RES     
   16009 C5        -354.4699  -231.2937   492.2296 C5            1 RES     
   16010 C5        -355.1320  -230.2819   493.1808 C5            1 RES     
   16011 C5        -354.1139  -229.5262   494.0466 C5            1 RES     
   16012 C5        -354.7906  -228.5714   495.0589 C5            1 RES     
   16013 C5        -355.2639  -227.2066   494.4688 C5            1 RES     
   16014 C5        -356.7931  -226.9067   494.5381 C5            1 RES     
   16015 C5        -357.3300  -226.9021   495.9991 C5            1 RES     
   16016 C5        -358.8382  -227.2049   496.0735 C5            1 RES     
   16017 C5        -359.2455  -227.7071   497.4754 C5            1 RES     
   16018 C5        -360.6759  -228.2759   497.4639 C5            1 RES     
   16019 C5        -361.0307  -229.0585   498.7410 C5            1 RES     
   16020 C5        -361.0741  -228.1978   499.9987 C5            1 RES     
   16021 C5        -357.0494  -225.5797   493.7520 C5            1 RES     
   16022 C0        -358.4411  -225.0102   493.2756 C0            1 RES     
   16023 C5        -358.1569  -223.4880   492.9138 C5            1 RES     
   16024 C5        -358.6371  -222.4587   493.9910 C5            1 RES     
   16025 C5        -360.1378  -222.0442   493.8384 C5            1 RES     
   16026 C5        -360.4484  -221.0805   492.6690 C5            1 RES     
   16027 C5        -361.9495  -220.8360   492.4302 C5            1 RES     
   16028 C5        -362.6610  -219.9865   493.5006 C5            1 RES     
   16029 C5        -362.1376  -218.5408   493.6428 C5            1 RES     
   16030 C5        -362.2563  -217.7181   492.3556 C5            1 RES     
   16031 C5        -357.6811  -221.2307   494.1566 C5            1 RES     
   16032 C5        -357.1642  -220.5407   492.8678 C5            1 RES     
   16033 C5        -356.4098  -219.2206   493.1445 C5            1 RES     
   16034 C5        -355.1669  -219.3794   494.0408 C5            1 RES     
   16035 C5        -354.4233  -218.0526   494.2954 C5            1 RES     
   16036 C5        -353.7646  -217.4670   493.0312 C5            1 RES     
   16037 C5        -353.0240  -216.1417   493.2852 C5            1 RES     
   16038 C5        -351.8357  -216.2733   494.2390 C5            1 RES     
   16039 H6        -353.1073  -233.7135   491.5518 H6            1 RES     
   16040 H6        -353.7015  -234.9318   490.3780 H6            1 RES     
   16041 H6        -354.5240  -234.7631   491.9742 H6            1 RES     
   16042 H6        -354.4500  -232.6438   489.7173 H6            1 RES     
   16043 H6        -355.8276  -233.7391   490.0948 H6            1 RES     
   16044 H6        -356.2535  -231.5155   491.0072 H6            1 RES     
   16045 H6        -356.1052  -232.7292   492.3277 H6            1 RES     
   16046 H6        -353.8734  -230.7490   491.4654 H6            1 RES     
   16047 H6        -353.7925  -231.9474   492.8183 H6            1 RES     
   16048 H6        -355.7570  -229.5730   492.5967 H6            1 RES     
   16049 H6        -355.7690  -230.8577   493.8804 H6            1 RES     
   16050 H6        -353.5679  -230.2988   494.6324 H6            1 RES     
   16051 H6        -353.3691  -228.9770   493.4314 H6            1 RES     
   16052 H6        -355.5891  -229.1343   495.5830 H6            1 RES     
   16053 H6        -354.0259  -228.3238   495.8255 H6            1 RES     
   16054 H6        -354.9492  -227.1841   493.4012 H6            1 RES     
   16055 H6        -354.7072  -226.3827   494.9658 H6            1 RES     
   16056 H6        -357.2093  -227.7572   494.0462 H6            1 RES     
   16057 H6        -356.8484  -227.7417   496.5291 H6            1 RES     
   16058 H6        -357.0447  -225.9866   496.5612 H6            1 RES     
   16059 H6        -359.4446  -226.3350   495.7438 H6            1 RES     
   16060 H6        -359.0357  -228.0534   495.3855 H6            1 RES     
   16061 H6        -359.1309  -226.9014   498.2318 H6            1 RES     
   16062 H6        -358.5687  -228.5470   497.7492 H6            1 RES     
   16063 H6        -361.4122  -227.4654   497.2784 H6            1 RES     
   16064 H6        -360.7504  -229.0093   496.6298 H6            1 RES     
   16065 H6        -360.2995  -229.8849   498.8865 H6            1 RES     
   16066 H6        -362.0343  -229.5157   498.6009 H6            1 RES     
   16067 H6        -361.8268  -227.3904   499.8827 H6            1 RES     
   16068 H6        -360.0799  -227.7559   500.2134 H6            1 RES     
   16069 H6        -361.3645  -228.8332   500.8629 H6            1 RES     
   16070 H6        -356.4512  -225.6217   492.8147 H6            1 RES     
   16071 H6        -356.5769  -224.8089   494.4048 H6            1 RES     
   16072 H6        -357.0598  -223.3664   492.7939 H6            1 RES     
   16073 H6        -358.4965  -223.1862   491.9133 H6            1 RES     
   16074 H6        -358.5761  -222.9801   494.9739 H6            1 RES     
   16075 H6        -360.7395  -222.9729   493.7326 H6            1 RES     
   16076 H6        -360.4634  -221.5400   494.7733 H6            1 RES     
   16077 H6        -359.9644  -220.1008   492.8247 H6            1 RES     
   16078 H6        -360.0403  -221.5082   491.7416 H6            1 RES     
   16079 H6        -362.0716  -220.3302   491.4494 H6            1 RES     
   16080 H6        -362.4639  -221.8146   492.3477 H6            1 RES     
   16081 H6        -362.5899  -220.4952   494.4842 H6            1 RES     
   16082 H6        -363.7383  -219.9330   493.2288 H6            1 RES     
   16083 H6        -361.0823  -218.5368   493.9843 H6            1 RES     
   16084 H6        -362.7431  -218.0360   494.4262 H6            1 RES     
   16085 H6        -363.3104  -217.6916   492.0061 H6            1 RES     
   16086 H6        -361.9224  -216.6768   492.5489 H6            1 RES     
   16087 H6        -361.6123  -218.1316   491.5526 H6            1 RES     
   16088 H6        -356.7754  -221.5935   494.6872 H6            1 RES     
   16089 H6        -358.1796  -220.4931   494.8229 H6            1 RES     
   16090 H6        -357.9812  -220.2811   492.1796 H6            1 RES     
   16091 H6        -356.4953  -221.2299   492.3146 H6            1 RES     
   16092 H6        -356.1065  -218.8145   492.1576 H6            1 RES     
   16093 H6        -357.1084  -218.4954   493.6171 H6            1 RES     
   16094 H6        -354.4652  -220.1177   493.5960 H6            1 RES     
   16095 H6        -355.4933  -219.7577   495.0319 H6            1 RES     
   16096 H6        -355.1256  -217.3117   494.7367 H6            1 RES     
   16097 H6        -353.6305  -218.2670   495.0417 H6            1 RES     
   16098 H6        -354.5451  -217.2538   492.2732 H6            1 RES     
   16099 H6        -353.0543  -218.2080   492.6036 H6            1 RES     
   16100 H6        -352.6360  -215.7746   492.3099 H6            1 RES     
   16101 H6        -353.7333  -215.3831   493.6814 H6            1 RES     
   16102 H6        -352.1653  -216.5711   495.2547 H6            1 RES     
   16103 H6        -351.3238  -215.2913   494.3246 H6            1 RES     
   16104 H6        -351.1096  -217.0183   493.8506 H6            1 RES     
   16105 C0        -356.4114  -237.7684   494.4120 C0            1 RES     
   16106 C0        -357.3436  -238.9752   494.5240 C0            1 RES     
   16107 C0        -358.6195  -238.5941   494.7733 C0            1 RES     
   16108 S1        -359.6934  -239.8761   494.8438 S1            1 RES     
   16109 C0        -358.4686  -241.0189   494.5341 C0            1 RES     
   16110 C0        -357.2486  -240.3518   494.3302 C0            1 RES     
   16111 C0        -358.7065  -237.1752   494.7337 C0            1 RES     
   16112 C0        -357.5116  -236.6973   494.4682 C0            1 RES     
   16113 C0        -357.5623  -235.2840   494.1430 C0            1 RES     
   16114 C0        -358.8631  -234.8110   494.2269 C0            1 RES     
   16115 S1        -360.0836  -236.0432   494.7250 S1            1 RES     
   16116 H2        -356.3681  -240.8617   494.0020 H2            1 RES     
   16117 H2        -356.7483  -234.7044   493.7428 H2            1 RES     
   16118 N3        -357.6291  -244.6908   494.5784 N3            1 RES     
   16119 C0        -357.5199  -243.3326   494.6304 C0            1 RES     
   16120 C0        -358.6393  -242.4945   494.4541 C0            1 RES     
   16121 C0        -359.8758  -243.1239   494.2347 C0            1 RES     
   16122 N3        -361.0507  -242.4669   494.0426 N3            1 RES     
   16123 S1        -362.1202  -243.7066   493.8095 S1            1 RES     
   16124 N3        -361.1885  -245.0643   493.9383 N3            1 RES     
   16125 C0        -359.9581  -244.5409   494.1748 C0            1 RES     
   16126 C0        -358.8179  -245.3137   494.3518 C0            1 RES     
   16127 H4        -356.5562  -242.9049   494.8438 H4            1 RES     
   16128 C5        -354.5859  -246.6226   490.4500 C5            1 RES     
   16129 C5        -355.2218  -245.2379   490.3171 C5            1 RES     
   16130 C5        -355.2735  -244.4510   491.6387 C5            1 RES     
   16131 C5        -353.8897  -244.1480   492.2465 C5            1 RES     
   16132 C5        -354.0382  -243.3154   493.5317 C5            1 RES     
   16133 C5        -352.7163  -243.1644   494.2978 C5            1 RES     
   16134 C5        -352.8887  -242.3977   495.6307 C5            1 RES     
   16135 C5        -352.9599  -240.8446   495.4980 C5            1 RES     
   16136 C5        -354.2771  -240.1607   495.9780 C5            1 RES     
   16137 C5        -354.5716  -240.4331   497.4820 C5            1 RES     
   16138 C5        -356.0686  -240.3075   497.8215 C5            1 RES     
   16139 C5        -356.4187  -241.0623   499.1219 C5            1 RES     
   16140 C5        -357.9434  -241.1765   499.3004 C5            1 RES     
   16141 C5        -358.3551  -242.1657   500.4055 C5            1 RES     
   16142 C5        -357.9335  -241.7349   501.8059 C5            1 RES     
   16143 C5        -354.1861  -238.6458   495.6022 C5            1 RES     
   16144 C0        -355.3621  -237.5947   495.5980 C0            1 RES     
   16145 C5        -354.6424  -236.1775   495.5472 C5            1 RES     
   16146 C5        -354.5977  -235.4169   496.9147 C5            1 RES     
   16147 C5        -355.8815  -234.5715   497.2053 C5            1 RES     
   16148 C5        -356.0153  -233.2611   496.3942 C5            1 RES     
   16149 C5        -357.3679  -232.5456   496.5636 C5            1 RES     
   16150 C5        -357.5996  -231.8824   497.9347 C5            1 RES     
   16151 C5        -356.6116  -230.7500   498.2890 C5            1 RES     
   16152 C5        -356.6298  -229.5880   497.2903 C5            1 RES     
   16153 C5        -353.2752  -234.6119   497.1429 C5            1 RES     
   16154 C5        -352.7447  -233.7495   495.9685 C5            1 RES     
   16155 C5        -351.5640  -232.8361   496.3686 C5            1 RES     
   16156 C5        -350.3316  -233.5929   496.8993 C5            1 RES     
   16157 C5        -349.1619  -232.6640   497.2825 C5            1 RES     
   16158 C5        -348.5303  -231.9440   496.0751 C5            1 RES     
   16159 C5        -347.3639  -231.0154   496.4581 C5            1 RES     
   16160 C5        -346.1654  -231.7489   497.0619 C5            1 RES     
   16161 H6        -353.5168  -246.5444   490.7333 H6            1 RES     
   16162 H6        -354.6400  -247.1472   489.4723 H6            1 RES     
   16163 H6        -355.1275  -247.2289   491.2068 H6            1 RES     
   16164 H6        -354.6715  -244.6523   489.5504 H6            1 RES     
   16165 H6        -356.2671  -245.3764   489.9620 H6            1 RES     
   16166 H6        -355.7985  -243.4914   491.4403 H6            1 RES     
   16167 H6        -355.8779  -245.0288   492.3724 H6            1 RES     
   16168 H6        -353.2597  -243.5943   491.5166 H6            1 RES     
   16169 H6        -353.3923  -245.1082   492.4981 H6            1 RES     
   16170 H6        -354.4678  -242.3209   493.2856 H6            1 RES     
   16171 H6        -354.7254  -243.8673   494.2025 H6            1 RES     
   16172 H6        -352.3812  -244.1955   494.5484 H6            1 RES     
   16173 H6        -351.9254  -242.6919   493.6764 H6            1 RES     
   16174 H6        -353.7469  -242.8410   496.1750 H6            1 RES     
   16175 H6        -351.9856  -242.6107   496.2414 H6            1 RES     
   16176 H6        -352.8086  -240.6001   494.4225 H6            1 RES     
   16177 H6        -352.0975  -240.3936   496.0351 H6            1 RES     
   16178 H6        -355.0166  -240.6771   495.4079 H6            1 RES     
   16179 H6        -354.3267  -241.4910   497.6788 H6            1 RES     
   16180 H6        -353.9229  -239.8411   498.1633 H6            1 RES     
   16181 H6        -356.3918  -239.2455   497.8493 H6            1 RES     
   16182 H6        -356.6309  -240.8262   497.0169 H6            1 RES     
   16183 H6        -355.9383  -240.5794   499.9997 H6            1 RES     
   16184 H6        -356.0277  -242.1003   499.0323 H6            1 RES     
   16185 H6        -358.3873  -240.1744   499.4801 H6            1 RES     
   16186 H6        -358.3733  -241.5818   498.3569 H6            1 RES     
   16187 H6        -357.9269  -243.1692   500.1855 H6            1 RES     
   16188 H6        -359.4627  -242.2604   500.3924 H6            1 RES     
   16189 H6        -358.3840  -240.7514   502.0544 H6            1 RES     
   16190 H6        -356.8293  -241.6734   501.8883 H6            1 RES     
   16191 H6        -358.2942  -242.4869   502.5405 H6            1 RES     
   16192 H6        -353.7734  -238.5782   494.5710 H6            1 RES     
   16193 H6        -353.3980  -238.2653   496.2932 H6            1 RES     
   16194 H6        -353.5955  -236.3398   495.2151 H6            1 RES     
   16195 H6        -354.9993  -235.5134   494.7479 H6            1 RES     
   16196 H6        -354.5761  -236.1982   497.7090 H6            1 RES     
   16197 H6        -356.7659  -235.2200   497.0239 H6            1 RES     
   16198 H6        -355.8868  -234.2926   498.2807 H6            1 RES     
   16199 H6        -355.2168  -232.5474   496.6613 H6            1 RES     
   16200 H6        -355.9066  -233.4954   495.3251 H6            1 RES     
   16201 H6        -357.4515  -231.7620   495.7815 H6            1 RES     
   16202 H6        -358.1841  -233.2713   496.3728 H6            1 RES     
   16203 H6        -357.5642  -232.6552   498.7303 H6            1 RES     
   16204 H6        -358.6249  -231.4511   497.9328 H6            1 RES     
   16205 H6        -355.5780  -231.1430   498.3752 H6            1 RES     
   16206 H6        -356.8991  -230.3475   499.2843 H6            1 RES     
   16207 H6        -357.6533  -229.1651   497.2034 H6            1 RES     
   16208 H6        -355.9455  -228.7867   497.6411 H6            1 RES     
   16209 H6        -356.2788  -229.9120   496.2892 H6            1 RES     
   16210 H6        -352.4763  -235.3534   497.3560 H6            1 RES     
   16211 H6        -353.4020  -233.9926   498.0577 H6            1 RES     
   16212 H6        -353.5171  -233.0810   495.5622 H6            1 RES     
   16213 H6        -352.4270  -234.4056   495.1336 H6            1 RES     
   16214 H6        -351.2846  -232.2614   495.4616 H6            1 RES     
   16215 H6        -351.9087  -232.1151   497.1424 H6            1 RES     
   16216 H6        -349.9844  -234.3349   496.1481 H6            1 RES     
   16217 H6        -350.6227  -234.1370   497.8220 H6            1 RES     
   16218 H6        -349.5093  -231.9184   498.0312 H6            1 RES     
   16219 H6        -348.3889  -233.3012   497.7598 H6            1 RES     
   16220 H6        -349.2940  -231.3078   495.5837 H6            1 RES     
   16221 H6        -348.1737  -232.6959   495.3376 H6            1 RES     
   16222 H6        -347.0170  -230.5035   495.5339 H6            1 RES     
   16223 H6        -347.7183  -230.2385   497.1697 H6            1 RES     
   16224 H6        -346.4294  -232.2256   498.0273 H6            1 RES     
   16225 H6        -345.3500  -231.0204   497.2569 H6            1 RES     
   16226 H6        -345.7898  -232.5203   496.3569 H6            1 RES     
   16227 C0        -357.5438  -250.1582   493.2360 C0            1 RES     
   16228 C0        -358.7982  -251.0318   493.2701 C0            1 RES     
   16229 C0        -359.8269  -250.3977   493.8823 C0            1 RES     
   16230 S1        -361.2443  -251.2880   493.8915 S1            1 RES     
   16231 C0        -360.5245  -252.5862   493.0558 C0            1 RES     
   16232 C0        -359.1937  -252.2599   492.7439 C0            1 RES     
   16233 C0        -359.4427  -249.0648   494.1958 C0            1 RES     
   16234 C0        -358.2067  -248.8863   493.7872 C0            1 RES     
   16235 C0        -357.8305  -247.4852   493.8210 C0            1 RES     
   16236 C0        -358.8752  -246.7117   494.3039 C0            1 RES     
   16237 S1        -360.3529  -247.6405   494.7622 S1            1 RES     
   16238 H2        -358.5875  -252.8775   492.1161 H2            1 RES     
   16239 H2        -356.9349  -247.0673   493.3946 H2            1 RES     
   16240 N3        -360.9539  -256.1912   492.0510 N3            1 RES     
   16241 C0        -360.3939  -254.9958   492.3928 C0            1 RES     
   16242 C0        -361.1847  -253.8634   492.6740 C0            1 RES     
   16243 C0        -362.5778  -254.0268   492.5979 C0            1 RES     
   16244 N3        -363.4827  -253.0397   492.8343 N3            1 RES     
   16245 S1        -364.9245  -253.8038   492.5653 S1            1 RES     
   16246 N3        -364.4879  -255.3443   492.1601 N3            1 RES     
   16247 C0        -363.1333  -255.2812   492.2289 C0            1 RES     
   16248 C0        -362.3014  -256.3599   491.9590 C0            1 RES     
   16249 H4        -359.3231  -254.9383   492.4775 H4            1 RES     
   16250 C5        -359.3351  -257.6044   487.0093 C5            1 RES     
   16251 C5        -359.4873  -256.1212   487.3502 C5            1 RES     
   16252 C5        -359.0891  -255.7741   488.7957 C5            1 RES     
   16253 C5        -357.6125  -256.0642   489.1297 C5            1 RES     
   16254 C5        -357.2944  -255.6376   490.5733 C5            1 RES     
   16255 C5        -355.9038  -256.0955   491.0354 C5            1 RES     
   16256 C5        -355.6232  -255.7364   492.5141 C5            1 RES     
   16257 C5        -355.1928  -254.2580   492.7673 C5            1 RES     
   16258 C5        -356.1273  -253.4031   493.6778 C5            1 RES     
   16259 C5        -356.2815  -254.0094   495.1032 C5            1 RES     
   16260 C5        -357.5887  -253.5729   495.7908 C5            1 RES     
   16261 C5        -357.9834  -254.5448   496.9234 C5            1 RES     
   16262 C5        -359.4186  -254.2727   497.4091 C5            1 RES     
   16263 C5        -359.9761  -255.3844   498.3161 C5            1 RES     
   16264 C5        -359.2434  -255.5191   499.6464 C5            1 RES     
   16265 C5        -355.5922  -251.9342   493.6556 C5            1 RES     
   16266 C0        -356.3409  -250.6415   494.1621 C0            1 RES     
   16267 C5        -355.2064  -249.5338   494.2829 C5            1 RES     
   16268 C5        -354.7206  -249.2514   495.7440 C5            1 RES     
   16269 C5        -355.5968  -248.2028   496.5054 C5            1 RES     
   16270 C5        -355.4004  -246.7302   496.0745 C5            1 RES     
   16271 C5        -356.4010  -245.7455   496.7065 C5            1 RES     
   16272 C5        -356.2047  -245.4755   498.2105 C5            1 RES     
   16273 C5        -354.8576  -244.8220   498.5875 C5            1 RES     
   16274 C5        -354.6289  -243.4627   497.9183 C5            1 RES     
   16275 C5        -353.1877  -248.9543   495.8499 C5            1 RES     
   16276 C5        -352.5712  -247.9716   494.8209 C5            1 RES     
   16277 C5        -351.1105  -247.5859   495.1468 C5            1 RES     
   16278 C5        -350.1377  -248.7795   495.1944 C5            1 RES     
   16279 C5        -348.6845  -248.3716   495.5103 C5            1 RES     
   16280 C5        -348.0257  -247.5378   494.3941 C5            1 RES     
   16281 C5        -346.5758  -247.1291   494.7105 C5            1 RES     
   16282 C5        -345.6165  -248.3133   494.8403 C5            1 RES     
   16283 H6        -358.2721  -257.9164   487.0547 H6            1 RES     
   16284 H6        -359.6968  -257.7825   485.9742 H6            1 RES     
   16285 H6        -359.9354  -258.2277   487.7056 H6            1 RES     
   16286 H6        -358.8871  -255.5163   486.6378 H6            1 RES     
   16287 H6        -360.5582  -255.8499   487.2174 H6            1 RES     
   16288 H6        -359.2882  -254.6914   488.9504 H6            1 RES     
   16289 H6        -359.7418  -256.3470   489.4909 H6            1 RES     
   16290 H6        -356.9433  -255.5217   488.4267 H6            1 RES     
   16291 H6        -357.4318  -257.1553   489.0314 H6            1 RES     
   16292 H6        -357.3996  -254.5358   490.6695 H6            1 RES     
   16293 H6        -358.0246  -256.1451   491.2337 H6            1 RES     
   16294 H6        -355.8982  -257.2054   490.9562 H6            1 RES     
   16295 H6        -355.0963  -255.7042   490.3798 H6            1 RES     
   16296 H6        -356.4947  -256.0594   493.1187 H6            1 RES     
   16297 H6        -354.7659  -256.3637   492.8386 H6            1 RES     
   16298 H6        -355.1213  -253.7624   491.7730 H6            1 RES     
   16299 H6        -354.1633  -254.2455   493.1864 H6            1 RES     
   16300 H6        -357.0684  -253.5002   493.1845 H6            1 RES     
   16301 H6        -356.3766  -255.1026   494.9870 H6            1 RES     
   16302 H6        -355.3843  -253.8500   495.7396 H6            1 RES     
   16303 H6        -357.5338  -252.5195   496.1380 H6            1 RES     
   16304 H6        -358.3982  -253.6534   495.0353 H6            1 RES     
   16305 H6        -357.2520  -254.4955   497.7583 H6            1 RES     
   16306 H6        -357.9758  -255.5772   496.5082 H6            1 RES     
   16307 H6        -359.4749  -253.2847   497.9130 H6            1 RES     
   16308 H6        -360.0865  -254.2461   496.5188 H6            1 RES     
   16309 H6        -359.9405  -256.3576   497.7771 H6            1 RES     
   16310 H6        -361.0425  -255.1556   498.5310 H6            1 RES     
   16311 H6        -359.3024  -254.5662   500.2126 H6            1 RES     
   16312 H6        -358.1815  -255.7974   499.4899 H6            1 RES     
   16313 H6        -359.7265  -256.3198   500.2468 H6            1 RES     
   16314 H6        -355.3294  -251.6866   492.6030 H6            1 RES     
   16315 H6        -354.6339  -252.0102   494.2206 H6            1 RES     
   16316 H6        -354.3302  -249.8793   493.6950 H6            1 RES     
   16317 H6        -355.4310  -248.5926   493.7623 H6            1 RES     
   16318 H6        -354.8483  -250.2040   496.3079 H6            1 RES     
   16319 H6        -356.6624  -248.4938   496.3816 H6            1 RES     
   16320 H6        -355.3584  -248.2612   497.5890 H6            1 RES     
   16321 H6        -354.3812  -246.3806   496.3139 H6            1 RES     
   16322 H6        -355.5267  -246.6621   494.9840 H6            1 RES     
   16323 H6        -356.3285  -244.7770   496.1685 H6            1 RES     
   16324 H6        -357.4299  -246.1234   496.5404 H6            1 RES     
   16325 H6        -356.3167  -246.4245   498.7746 H6            1 RES     
   16326 H6        -357.0183  -244.7924   498.5403 H6            1 RES     
   16327 H6        -354.0117  -245.4970   498.3445 H6            1 RES     
   16328 H6        -354.8526  -244.6646   499.6877 H6            1 RES     
   16329 H6        -355.4554  -242.7629   498.1654 H6            1 RES     
   16330 H6        -353.6754  -243.0254   498.2831 H6            1 RES     
   16331 H6        -354.5494  -243.5645   496.8166 H6            1 RES     
   16332 H6        -352.6587  -249.9191   495.6983 H6            1 RES     
   16333 H6        -352.9721  -248.6204   496.8884 H6            1 RES     
   16334 H6        -353.1269  -247.0246   494.7667 H6            1 RES     
   16335 H6        -352.6097  -248.4163   493.8064 H6            1 RES     
   16336 H6        -350.7864  -246.8739   494.3601 H6            1 RES     
   16337 H6        -351.0844  -247.0565   496.1247 H6            1 RES     
   16338 H6        -350.1655  -249.3354   494.2323 H6            1 RES     
   16339 H6        -350.4605  -249.4649   496.0057 H6            1 RES     
   16340 H6        -348.6562  -247.8116   496.4709 H6            1 RES     
   16341 H6        -348.1080  -249.3110   495.6388 H6            1 RES     
   16342 H6        -348.5958  -246.5979   494.2499 H6            1 RES     
   16343 H6        -348.0460  -248.1095   493.4406 H6            1 RES     
   16344 H6        -346.2118  -246.4885   493.8777 H6            1 RES     
   16345 H6        -346.5487  -246.5277   495.6449 H6            1 RES     
   16346 H6        -345.8857  -248.9572   495.7016 H6            1 RES     
   16347 H6        -344.5868  -247.9338   495.0112 H6            1 RES     
   16348 H6        -345.6210  -248.9176   493.9087 H6            1 RES     
   16349 C0        -362.8771  -260.8192   489.4851 C0            1 RES     
   16350 C0        -364.3324  -261.2749   489.5959 C0            1 RES     
   16351 C0        -364.9958  -260.5853   490.5548 C0            1 RES     
   16352 S1        -366.6122  -261.0031   490.6749 S1            1 RES     
   16353 C0        -366.4888  -262.1474   489.4190 C0            1 RES     
   16354 C0        -365.1828  -262.1322   488.9004 C0            1 RES     
   16355 C0        -364.1511  -259.5668   491.0761 C0            1 RES     
   16356 C0        -362.9961  -259.6317   490.4528 C0            1 RES     
   16357 C0        -362.1754  -258.4669   490.7273 C0            1 RES     
   16358 C0        -362.8255  -257.6075   491.6000 C0            1 RES     
   16359 S1        -364.4480  -258.1749   492.1495 S1            1 RES     
   16360 H2        -364.9103  -262.6834   488.0258 H2            1 RES     
   16361 H2        -361.2611  -258.2119   490.2198 H2            1 RES     
   16362 N3        -368.2267  -265.0274   487.7234 N3            1 RES     
   16363 C0        -367.2597  -264.1924   488.1998 C0            1 RES     
   16364 C0        -367.5821  -263.0174   488.9083 C0            1 RES     
   16365 C0        -368.9466  -262.7527   489.1120 C0            1 RES     
   16366 N3        -369.4299  -261.6653   489.7700 N3            1 RES     
   16367 S1        -371.0661  -261.8794   489.6619 S1            1 RES     
   16368 N3        -371.2270  -263.2916   488.8205 N3            1 RES     
   16369 C0        -369.9327  -263.6349   488.5951 C0            1 RES     
   16370 C0        -369.5526  -264.7758   487.9005 C0            1 RES     
   16371 H4        -366.2298  -264.4657   488.0520 H4            1 RES     
   16372 C5        -367.8926  -265.2988   482.2598 C5            1 RES     
   16373 C5        -367.4945  -264.0002   482.9629 C5            1 RES     
   16374 C5        -366.8051  -264.2180   484.3216 C5            1 RES     
   16375 C5        -365.4771  -264.9961   484.2371 C5            1 RES     
   16376 C5        -364.8365  -265.1181   485.6305 C5            1 RES     
   16377 C5        -363.6264  -266.0629   485.6475 C5            1 RES     
   16378 C5        -363.0382  -266.2462   487.0668 C5            1 RES     
   16379 C5        -362.1105  -265.0902   487.5546 C5            1 RES     
   16380 C5        -362.5708  -264.3125   488.8261 C5            1 RES     
   16381 C5        -362.7161  -265.2403   490.0674 C5            1 RES     
   16382 C5        -363.6942  -264.6751   491.1142 C5            1 RES     
   16383 C5        -364.2262  -265.7838   492.0475 C5            1 RES     
   16384 C5        -365.4066  -265.2737   492.8937 C5            1 RES     
   16385 C5        -366.1684  -266.3984   493.6176 C5            1 RES     
   16386 C5        -365.3431  -267.1167   494.6795 C5            1 RES     
   16387 C5        -361.5873  -263.1139   489.0276 C5            1 RES     
   16388 C0        -361.7857  -261.8702   489.9772 C0            1 RES     
   16389 C5        -360.3427  -261.2122   490.0947 C5            1 RES     
   16390 C5        -359.5909  -261.5183   491.4332 C5            1 RES     
   16391 C5        -359.9535  -260.5363   492.5957 C5            1 RES     
   16392 C5        -359.3420  -259.1196   492.4878 C5            1 RES     
   16393 C5        -359.8599  -258.1232   493.5409 C5            1 RES     
   16394 C5        -359.3763  -258.3717   494.9824 C5            1 RES     
   16395 C5        -357.8499  -258.2636   495.1882 C5            1 RES     
   16396 C5        -357.2793  -256.8898   494.8212 C5            1 RES     
   16397 C5        -358.0475  -261.7088   491.2574 C5            1 RES     
   16398 C5        -357.2906  -260.6829   490.3748 C5            1 RES     
   16399 C5        -355.7543  -260.8365   490.4440 C5            1 RES     
   16400 C5        -355.2363  -262.2148   489.9911 C5            1 RES     
   16401 C5        -353.7011  -262.3431   490.0579 C5            1 RES     
   16402 C5        -352.9663  -261.4397   489.0485 C5            1 RES     
   16403 C5        -351.4337  -261.5665   489.1165 C5            1 RES     
   16404 C5        -350.9137  -262.9564   488.7467 C5            1 RES     
   16405 H6        -366.9981  -265.8962   481.9904 H6            1 RES     
   16406 H6        -368.4342  -265.0571   481.3205 H6            1 RES     
   16407 H6        -368.5618  -265.9034   482.9080 H6            1 RES     
   16408 H6        -366.8337  -263.4077   482.2951 H6            1 RES     
   16409 H6        -368.4220  -263.4123   483.1419 H6            1 RES     
   16410 H6        -366.6098  -263.2178   484.7656 H6            1 RES     
   16411 H6        -367.5067  -264.7615   484.9924 H6            1 RES     
   16412 H6        -364.7714  -264.4827   483.5481 H6            1 RES     
   16413 H6        -365.6845  -266.0153   483.8486 H6            1 RES     
   16414 H6        -364.5554  -264.1097   486.0026 H6            1 RES     
   16415 H6        -365.5935  -265.5698   486.3012 H6            1 RES     
   16416 H6        -364.0007  -267.0556   485.3121 H6            1 RES     
   16417 H6        -362.8352  -265.7404   484.9369 H6            1 RES     
   16418 H6        -363.8735  -266.4733   487.7595 H6            1 RES     
   16419 H6        -362.4012  -267.1555   487.0341 H6            1 RES     
   16420 H6        -362.0187  -264.3664   486.7138 H6            1 RES     
   16421 H6        -361.0873  -265.4909   487.7221 H6            1 RES     
   16422 H6        -363.5502  -263.9923   488.5488 H6            1 RES     
   16423 H6        -363.1839  -266.1788   489.7237 H6            1 RES     
   16424 H6        -361.7370  -265.5332   490.5046 H6            1 RES     
   16425 H6        -363.2447  -263.8294   491.6763 H6            1 RES     
   16426 H6        -364.5819  -264.2999   490.5632 H6            1 RES     
   16427 H6        -363.4105  -266.1887   492.6840 H6            1 RES     
   16428 H6        -364.6200  -266.6080   491.4119 H6            1 RES     
   16429 H6        -365.0605  -264.5023   493.6139 H6            1 RES     
   16430 H6        -366.1456  -264.8011   492.2083 H6            1 RES     
   16431 H6        -366.5338  -267.1401   492.8725 H6            1 RES     
   16432 H6        -367.0571  -265.9523   494.1146 H6            1 RES     
   16433 H6        -365.0025  -266.3950   495.4508 H6            1 RES     
   16434 H6        -364.4668  -267.6240   494.2272 H6            1 RES     
   16435 H6        -365.9753  -267.8885   495.1692 H6            1 RES     
   16436 H6        -361.4075  -262.6536   488.0306 H6            1 RES     
   16437 H6        -360.6393  -263.6183   489.3283 H6            1 RES     
   16438 H6        -359.7225  -261.6024   489.2605 H6            1 RES     
   16439 H6        -360.3129  -260.1365   489.8727 H6            1 RES     
   16440 H6        -359.9472  -262.5180   491.7729 H6            1 RES     
   16441 H6        -361.0615  -260.4664   492.6507 H6            1 RES     
   16442 H6        -359.5986  -260.9738   493.5533 H6            1 RES     
   16443 H6        -358.2417  -259.1567   492.5663 H6            1 RES     
   16444 H6        -359.5901  -258.7027   491.5007 H6            1 RES     
   16445 H6        -359.5463  -257.1010   493.2420 H6            1 RES     
   16446 H6        -360.9685  -258.1307   493.5274 H6            1 RES     
   16447 H6        -359.7167  -259.3727   495.3195 H6            1 RES     
   16448 H6        -359.8624  -257.6152   495.6372 H6            1 RES     
   16449 H6        -357.3190  -259.0473   494.6101 H6            1 RES     
   16450 H6        -357.6388  -258.4431   496.2645 H6            1 RES     
   16451 H6        -357.7834  -256.0901   495.4046 H6            1 RES     
   16452 H6        -356.1936  -256.8649   495.0536 H6            1 RES     
   16453 H6        -357.3934  -256.6828   493.7374 H6            1 RES     
   16454 H6        -357.8955  -262.6949   490.7695 H6            1 RES     
   16455 H6        -357.5900  -261.7681   492.2691 H6            1 RES     
   16456 H6        -357.5023  -259.6453   490.6699 H6            1 RES     
   16457 H6        -357.6163  -260.7816   489.3200 H6            1 RES     
   16458 H6        -355.3259  -260.0466   489.7932 H6            1 RES     
   16459 H6        -355.4171  -260.6461   491.4868 H6            1 RES     
   16460 H6        -355.5816  -262.4336   488.9576 H6            1 RES     
   16461 H6        -355.6511  -262.9879   490.6712 H6            1 RES     
   16462 H6        -353.3540  -262.1204   491.0909 H6            1 RES     
   16463 H6        -353.4571  -263.4014   489.8302 H6            1 RES     
   16464 H6        -353.2063  -260.3781   489.2600 H6            1 RES     
   16465 H6        -353.3086  -261.6774   488.0176 H6            1 RES     
   16466 H6        -350.9983  -260.8396   488.3964 H6            1 RES     
   16467 H6        -351.0778  -261.2979   490.1348 H6            1 RES     
   16468 H6        -351.2577  -263.7213   489.4716 H6            1 RES     
   16469 H6        -349.8032  -262.9492   488.7650 H6            1 RES     
   16470 H6        -351.2490  -263.2349   487.7254 H6            1 RES     
   16471 C0        -371.9166  -267.9655   484.6486 C0            1 RES     
   16472 C0        -373.4099  -268.0052   484.9749 C0            1 RES     
   16473 C0        -373.6653  -267.4690   486.1924 C0            1 RES     
   16474 S1        -375.2950  -267.4314   486.5725 S1            1 RES     
   16475 C0        -375.7358  -268.1445   485.0896 C0            1 RES     
   16476 C0        -374.5851  -268.3461   484.3084 C0            1 RES     
   16477 C0        -372.4662  -266.9283   486.7331 C0            1 RES     
   16478 C0        -371.4978  -267.1299   485.8682 C0            1 RES     
   16479 C0        -370.3071  -266.3765   486.2150 C0            1 RES     
   16480 C0        -370.5059  -265.6636   487.3876 C0            1 RES     
   16481 S1        -372.1307  -265.8867   488.1404 S1            1 RES     
   16482 H2        -374.6365  -268.6705   483.2909 H2            1 RES     
   16483 H2        -369.4407  -266.2520   485.5885 H2            1 RES     
   16484 N3        -378.5505  -269.7917   483.2045 N3            1 RES     
   16485 C0        -377.3045  -269.4399   483.6323 C0            1 RES     
   16486 C0        -377.1160  -268.4827   484.6496 C0            1 RES     
   16487 C0        -378.2724  -267.9167   485.2114 C0            1 RES     
   16488 N3        -378.2701  -266.9795   486.1967 N3            1 RES     
   16489 S1        -379.8827  -266.6835   486.4130 S1            1 RES     
   16490 N3        -380.6194  -267.6827   485.3235 N3            1 RES     
   16491 C0        -379.5576  -268.2945   484.7386 C0            1 RES     
   16492 C0        -379.6790  -269.2408   483.7295 C0            1 RES     
   16493 H4        -376.4553  -269.9361   483.1968 H4            1 RES     
   16494 C5        -379.0950  -268.5350   477.8979 C5            1 RES     
   16495 C5        -378.1940  -267.6658   478.7766 C5            1 RES     
   16496 C5        -377.4328  -268.4563   479.8556 C5            1 RES     
   16497 C5        -376.4641  -269.5161   479.2948 C5            1 RES     
   16498 C5        -375.7115  -270.2155   480.4400 C5            1 RES     
   16499 C5        -374.8939  -271.4242   479.9628 C5            1 RES     
   16500 C5        -374.2071  -272.1725   481.1301 C5            1 RES     
   16501 C5        -372.8896  -271.5196   481.6525 C5            1 RES     
   16502 C5        -372.8827  -271.0515   483.1404 C5            1 RES     
   16503 C5        -373.1520  -272.2219   484.1307 C5            1 RES     
   16504 C5        -373.7301  -271.7366   485.4732 C5            1 RES     
   16505 C5        -374.4635  -272.8734   486.2168 C5            1 RES     
   16506 C5        -375.2766  -272.3228   487.4023 C5            1 RES     
   16507 C5        -376.2591  -273.3484   487.9960 C5            1 RES     
   16508 C5        -375.5788  -274.5477   488.6467 C5            1 RES     
   16509 C5        -371.5391  -270.2916   483.3894 C5            1 RES     
   16510 C0        -371.1783  -269.3770   484.6228 C0            1 RES     
   16511 C5        -369.5974  -269.2157   484.5626 C5            1 RES     
   16512 C5        -368.8100  -270.0986   485.5878 C5            1 RES     
   16513 C5        -368.6593  -269.4393   486.9984 C5            1 RES     
   16514 C5        -367.6338  -268.2849   487.0895 C5            1 RES     
   16515 C5        -367.6386  -267.5368   488.4350 C5            1 RES     
   16516 C5        -367.0678  -268.3217   489.6315 C5            1 RES     
   16517 C5        -365.5792  -268.7123   489.5076 C5            1 RES     
   16518 C5        -364.6423  -267.5098   489.3527 C5            1 RES     
   16519 C5        -367.4581  -270.6553   485.0294 C5            1 RES     
   16520 C5        -366.5353  -269.6722   484.2636 C5            1 RES     
   16521 C5        -365.1435  -270.2648   483.9472 C5            1 RES     
   16522 C5        -365.1812  -271.5377   483.0802 C5            1 RES     
   16523 C5        -363.7822  -272.1061   482.7675 C5            1 RES     
   16524 C5        -362.9385  -271.1917   481.8582 C5            1 RES     
   16525 C5        -361.5414  -271.7584   481.5477 C5            1 RES     
   16526 C5        -361.5695  -273.0668   480.7561 C5            1 RES     
   16527 H6        -378.4966  -269.2536   477.3021 H6            1 RES     
   16528 H6        -379.6517  -267.8868   477.1879 H6            1 RES     
   16529 H6        -379.8291  -269.0890   478.5206 H6            1 RES     
   16530 H6        -377.4746  -267.1146   478.1345 H6            1 RES     
   16531 H6        -378.8391  -266.9201   479.2922 H6            1 RES     
   16532 H6        -376.8563  -267.7270   480.4652 H6            1 RES     
   16533 H6        -378.1735  -268.9520   480.5212 H6            1 RES     
   16534 H6        -375.7320  -269.0437   478.6040 H6            1 RES     
   16535 H6        -377.0503  -270.2756   478.7360 H6            1 RES     
   16536 H6        -375.0625  -269.4818   480.9642 H6            1 RES     
   16537 H6        -376.4736  -270.6117   481.1394 H6            1 RES     
   16538 H6        -375.6196  -272.1281   479.4980 H6            1 RES     
   16539 H6        -374.1485  -271.1440   479.1878 H6            1 RES     
   16540 H6        -374.9646  -272.3479   481.9204 H6            1 RES     
   16541 H6        -373.9192  -273.1732   480.7433 H6            1 RES     
   16542 H6        -372.6817  -270.6378   481.0055 H6            1 RES     
   16543 H6        -372.0446  -272.2225   481.4868 H6            1 RES     
   16544 H6        -373.7288  -270.4023   483.1735 H6            1 RES     
   16545 H6        -373.9481  -272.8474   483.6917 H6            1 RES     
   16546 H6        -372.2747  -272.8928   484.2552 H6            1 RES     
   16547 H6        -372.9513  -271.2545   486.1011 H6            1 RES     
   16548 H6        -374.5110  -270.9828   485.2395 H6            1 RES     
   16549 H6        -373.7477  -273.6591   486.5406 H6            1 RES     
   16550 H6        -375.1935  -273.3299   485.5118 H6            1 RES     
   16551 H6        -374.5968  -271.9259   488.1857 H6            1 RES     
   16552 H6        -375.9052  -271.4826   487.0309 H6            1 RES     
   16553 H6        -376.9506  -273.7055   487.2003 H6            1 RES     
   16554 H6        -376.8704  -272.8362   488.7704 H6            1 RES     
   16555 H6        -374.9133  -274.2096   489.4682 H6            1 RES     
   16556 H6        -374.9931  -275.1254   487.9030 H6            1 RES     
   16557 H6        -376.3560  -275.2186   489.0721 H6            1 RES     
   16558 H6        -371.3584  -269.6296   482.5134 H6            1 RES     
   16559 H6        -370.7800  -271.1071   483.3426 H6            1 RES     
   16560 H6        -369.2652  -269.5026   483.5427 H6            1 RES     
   16561 H6        -369.2436  -268.1760   484.5971 H6            1 RES     
   16562 H6        -369.4265  -271.0115   485.7559 H6            1 RES     
   16563 H6        -369.6620  -269.0799   487.3164 H6            1 RES     
   16564 H6        -368.3391  -270.2192   487.7221 H6            1 RES     
   16565 H6        -366.6087  -268.6512   486.9072 H6            1 RES     
   16566 H6        -367.8652  -267.5453   486.3090 H6            1 RES     
   16567 H6        -367.0486  -266.6033   488.3203 H6            1 RES     
   16568 H6        -368.6771  -267.2279   488.6702 H6            1 RES     
   16569 H6        -367.6703  -269.2395   489.7933 H6            1 RES     
   16570 H6        -367.1783  -267.6853   490.5371 H6            1 RES     
   16571 H6        -365.4251  -269.4087   488.6582 H6            1 RES     
   16572 H6        -365.2909  -269.2507   490.4362 H6            1 RES     
   16573 H6        -364.7654  -266.8079   490.2049 H6            1 RES     
   16574 H6        -363.5887  -267.8604   489.3338 H6            1 RES     
   16575 H6        -364.8321  -266.9714   488.4017 H6            1 RES     
   16576 H6        -367.7120  -271.4564   484.3034 H6            1 RES     
   16577 H6        -366.9091  -271.1341   485.8695 H6            1 RES     
   16578 H6        -366.3469  -268.7507   484.8328 H6            1 RES     
   16579 H6        -367.0198  -269.3621   483.3162 H6            1 RES     
   16580 H6        -364.5729  -269.4729   483.4196 H6            1 RES     
   16581 H6        -364.6195  -270.4908   484.9020 H6            1 RES     
   16582 H6        -365.7208  -271.3380   482.1292 H6            1 RES     
   16583 H6        -365.7294  -272.3266   483.6363 H6            1 RES     
   16584 H6        -363.2398  -272.3024   483.7185 H6            1 RES     
   16585 H6        -363.9378  -273.0753   482.2500 H6            1 RES     
   16586 H6        -362.7805  -270.2159   482.3603 H6            1 RES     
   16587 H6        -363.4813  -271.0111   480.9046 H6            1 RES     
   16588 H6        -360.9950  -271.0058   480.9383 H6            1 RES     
   16589 H6        -360.9775  -271.9110   482.4934 H6            1 RES     
   16590 H6        -362.0426  -273.8812   481.3407 H6            1 RES     
   16591 H6        -360.5286  -273.3778   480.5250 H6            1 RES     
   16592 H6        -362.1179  -272.9281   479.8006 H6            1 RES     
   16593 C0        -383.3988  -270.5397   480.4412 C0            1 RES     
   16594 C0        -384.7593  -270.2516   481.0769 C0            1 RES     
   16595 C0        -384.6489  -270.0459   482.4113 C0            1 RES     
   16596 S1        -386.1034  -269.6646   483.1467 S1            1 RES     
   16597 C0        -386.9591  -269.7584   481.6768 C0            1 RES     
   16598 C0        -386.0622  -270.0376   480.6316 C0            1 RES     
   16599 C0        -383.2751  -270.0471   482.7789 C0            1 RES     
   16600 C0        -382.5599  -270.2507   481.6955 C0            1 RES     
   16601 C0        -381.1504  -269.9983   481.9313 C0            1 RES     
   16602 C0        -380.9349  -269.6340   483.2518 C0            1 RES     
   16603 S1        -382.4191  -269.6014   484.2777 S1            1 RES     
   16604 H2        -386.3605  -270.0219   479.6050 H2            1 RES     
   16605 H2        -380.3888  -269.9449   481.1727 H2            1 RES     
   16606 N3        -390.3959  -269.9207   480.1431 N3            1 RES     
   16607 C0        -389.0568  -270.0747   480.3492 C0            1 RES     
   16608 C0        -388.4206  -269.5506   481.4925 C0            1 RES     
   16609 C0        -389.2327  -268.8726   482.4167 C0            1 RES     
   16610 N3        -388.7814  -268.3050   483.5670 N3            1 RES     
   16611 S1        -390.1571  -267.6443   484.2039 S1            1 RES     
   16612 N3        -391.3287  -268.0315   483.1060 N3            1 RES     
   16613 C0        -390.6233  -268.7181   482.1707 C0            1 RES     
   16614 C0        -391.1921  -269.2535   481.0225 C0            1 RES     
   16615 H4        -388.4903  -270.6396   479.6300 H4            1 RES     
   16616 C5        -391.2306  -267.0662   475.5397 C5            1 RES     
   16617 C5        -389.9785  -266.7823   476.3710 C5            1 RES     
   16618 C5        -389.3795  -268.0345   477.0354 C5            1 RES     
   16619 C5        -388.9062  -269.1115   476.0393 C5            1 RES     
   16620 C5        -388.2758  -270.2974   476.7897 C5            1 RES     
   16621 C5        -387.9812  -271.4923   475.8718 C5            1 RES     
   16622 C5        -387.4252  -272.7110   476.6464 C5            1 RES     
   16623 C5        -385.9062  -272.6376   476.9963 C5            1 RES     
   16624 C5        -385.5357  -272.6471   478.5115 C5            1 RES     
   16625 C5        -386.0366  -273.9308   479.2355 C5            1 RES     
   16626 C5        -386.2266  -273.7176   480.7489 C5            1 RES     
   16627 C5        -387.1838  -274.7680   481.3520 C5            1 RES     
   16628 C5        -387.5933  -274.3831   482.7851 C5            1 RES     
   16629 C5        -388.7670  -275.2178   483.3284 C5            1 RES     
   16630 C5        -388.4392  -276.6956   483.5106 C5            1 RES     
   16631 C5        -383.9953  -272.4033   478.6218 C5            1 RES     
   16632 C0        -383.1822  -272.0298   479.9208 C0            1 RES     
   16633 C5        -381.6624  -272.3093   479.5453 C5            1 RES     
   16634 C5        -381.0772  -273.6376   480.1315 C5            1 RES     
   16635 C5        -380.5200  -273.4903   481.5859 C5            1 RES     
   16636 C5        -379.1675  -272.7501   481.7106 C5            1 RES     
   16637 C5        -378.7350  -272.4589   483.1591 C5            1 RES     
   16638 C5        -378.2954  -273.6869   483.9790 C5            1 RES     
   16639 C5        -377.0537  -274.4262   483.4352 C5            1 RES     
   16640 C5        -375.8024  -273.5452   483.3585 C5            1 RES     
   16641 C5        -380.0792  -274.3631   479.1688 C5            1 RES     
   16642 C5        -378.9994  -273.5000   478.4662 C5            1 RES     
   16643 C5        -377.9421  -274.3404   477.7149 C5            1 RES     
   16644 C5        -378.5214  -275.2394   476.6061 C5            1 RES     
   16645 C5        -377.4488  -276.0608   475.8624 C5            1 RES     
   16646 C5        -376.4858  -275.1963   475.0258 C5            1 RES     
   16647 C5        -375.4141  -276.0163   474.2850 C5            1 RES     
   16648 C5        -375.9856  -276.9724   473.2370 C5            1 RES     
   16649 H6        -390.9946  -267.7169   474.6735 H6            1 RES     
   16650 H6        -391.6344  -266.1095   475.1450 H6            1 RES     
   16651 H6        -392.0120  -267.5484   476.1647 H6            1 RES     
   16652 H6        -389.2145  -266.2929   475.7302 H6            1 RES     
   16653 H6        -390.2604  -266.0702   477.1781 H6            1 RES     
   16654 H6        -388.5142  -267.7085   477.6526 H6            1 RES     
   16655 H6        -390.1417  -268.4741   477.7161 H6            1 RES     
   16656 H6        -388.1634  -268.6834   475.3313 H6            1 RES     
   16657 H6        -389.7835  -269.4772   475.4654 H6            1 RES     
   16658 H6        -387.3533  -269.9627   477.3106 H6            1 RES     
   16659 H6        -389.0201  -270.6499   477.5303 H6            1 RES     
   16660 H6        -388.9569  -271.7956   475.4312 H6            1 RES     
   16661 H6        -387.3015  -271.2191   475.0362 H6            1 RES     
   16662 H6        -388.0792  -272.8896   477.5237 H6            1 RES     
   16663 H6        -387.5430  -273.5933   475.9820 H6            1 RES     
   16664 H6        -385.5103  -271.7008   476.5434 H6            1 RES     
   16665 H6        -385.3745  -273.4692   476.4851 H6            1 RES     
   16666 H6        -386.1050  -271.8255   478.8850 H6            1 RES     
   16667 H6        -387.0484  -274.1502   478.8535 H6            1 RES     
   16668 H6        -385.4234  -274.8272   478.9989 H6            1 RES     
   16669 H6        -385.2520  -273.6797   481.2800 H6            1 RES     
   16670 H6        -386.7376  -272.7407   480.8798 H6            1 RES     
   16671 H6        -386.7314  -275.7820   481.3135 H6            1 RES     
   16672 H6        -388.1151  -274.7736   480.7430 H6            1 RES     
   16673 H6        -386.7176  -274.4407   483.4657 H6            1 RES     
   16674 H6        -387.9529  -273.3296   482.7716 H6            1 RES     
   16675 H6        -389.6421  -275.1169   482.6481 H6            1 RES     
   16676 H6        -389.0586  -274.8045   484.3183 H6            1 RES     
   16677 H6        -387.5910  -276.8141   484.2167 H6            1 RES     
   16678 H6        -388.1888  -277.1707   482.5403 H6            1 RES     
   16679 H6        -389.3272  -277.2147   483.9314 H6            1 RES     
   16680 H6        -383.7299  -271.5927   477.9070 H6            1 RES     
   16681 H6        -383.5644  -273.3483   478.2160 H6            1 RES     
   16682 H6        -381.5908  -272.3664   478.4388 H6            1 RES     
   16683 H6        -380.9825  -271.4686   479.7411 H6            1 RES     
   16684 H6        -381.9317  -274.3478   480.2162 H6            1 RES     
   16685 H6        -381.2915  -272.9729   482.1964 H6            1 RES     
   16686 H6        -380.3788  -274.5048   482.0161 H6            1 RES     
   16687 H6        -378.3584  -273.3199   481.2217 H6            1 RES     
   16688 H6        -379.2473  -271.7807   481.1972 H6            1 RES     
   16689 H6        -377.8909  -271.7380   483.1357 H6            1 RES     
   16690 H6        -379.5682  -271.9533   483.6876 H6            1 RES     
   16691 H6        -379.1393  -274.4036   484.0534 H6            1 RES     
   16692 H6        -378.0602  -273.3391   485.0091 H6            1 RES     
   16693 H6        -377.2602  -274.8574   482.4344 H6            1 RES     
   16694 H6        -376.8333  -275.2710   484.1229 H6            1 RES     
   16695 H6        -375.5648  -273.1185   484.3562 H6            1 RES     
   16696 H6        -374.9386  -274.1564   483.0214 H6            1 RES     
   16697 H6        -375.9340  -272.7215   482.6274 H6            1 RES     
   16698 H6        -380.6837  -274.8115   478.3521 H6            1 RES     
   16699 H6        -379.6082  -275.2010   479.7279 H6            1 RES     
   16700 H6        -378.4381  -272.8773   479.1773 H6            1 RES     
   16701 H6        -379.4813  -272.8032   477.7516 H6            1 RES     
   16702 H6        -377.2210  -273.6227   477.2722 H6            1 RES     
   16703 H6        -377.3945  -274.9737   478.4472 H6            1 RES     
   16704 H6        -379.0918  -274.6270   475.8747 H6            1 RES     
   16705 H6        -379.2166  -275.9690   477.0713 H6            1 RES     
   16706 H6        -376.8746  -276.6711   476.5939 H6            1 RES     
   16707 H6        -377.9882  -276.7514   475.1816 H6            1 RES     
   16708 H6        -375.9441  -274.4958   475.6930 H6            1 RES     
   16709 H6        -377.0658  -274.5995   474.2883 H6            1 RES     
   16710 H6        -374.7401  -275.3037   473.7612 H6            1 RES     
   16711 H6        -374.8062  -276.5910   475.0169 H6            1 RES     
   16712 H6        -376.6153  -277.7548   473.7063 H6            1 RES     
   16713 H6        -375.1502  -277.4817   472.7113 H6            1 RES     
   16714 H6        -376.5851  -276.4119   472.4891 H6            1 RES     
   16715 C0        -395.5542  -268.4324   478.4467 C0            1 RES     
   16716 C0        -396.6385  -267.9725   479.4218 C0            1 RES     
   16717 C0        -396.2802  -268.2061   480.7072 C0            1 RES     
   16718 S1        -397.4073  -267.6638   481.8195 S1            1 RES     
   16719 C0        -398.4429  -267.0788   480.5999 C0            1 RES     
   16720 C0        -397.8453  -267.2803   479.3440 C0            1 RES     
   16721 C0        -394.9475  -268.7011   480.7451 C0            1 RES     
   16722 C0        -394.4998  -268.7712   479.5117 C0            1 RES     
   16723 C0        -393.0682  -269.0059   479.4762 C0            1 RES     
   16724 C0        -392.5611  -269.1200   480.7618 C0            1 RES     
   16725 S1        -393.7909  -268.9730   482.0741 S1            1 RES     
   16726 H2        -398.2623  -266.8816   478.4439 H2            1 RES     
   16727 H2        -392.4463  -268.9493   478.5995 H2            1 RES     
   16728 N3        -401.9177  -265.8120   479.8855 N3            1 RES     
   16729 C0        -400.6907  -266.3896   479.7429 C0            1 RES     
   16730 C0        -399.7630  -266.4240   480.8034 C0            1 RES     
   16731 C0        -400.1659  -265.8464   482.0188 C0            1 RES     
   16732 N3        -399.3953  -265.7912   483.1378 N3            1 RES     
   16733 S1        -400.3700  -264.9869   484.2045 S1            1 RES     
   16734 N3        -401.7454  -264.6900   483.3395 N3            1 RES     
   16735 C0        -401.4464  -265.2422   482.1355 C0            1 RES     
   16736 C0        -402.3157  -265.2356   481.0526 C0            1 RES     
   16737 H4        -400.4506  -266.8546   478.8031 H4            1 RES     
   16738 C5        -402.3944  -261.6212   476.3860 C5            1 RES     
   16739 C5        -401.0156  -261.9571   476.9565 C5            1 RES     
   16740 C5        -400.7792  -263.4645   477.1576 C5            1 RES     
   16741 C5        -400.8348  -264.2903   475.8572 C5            1 RES     
   16742 C5        -400.5352  -265.7710   476.1480 C5            1 RES     
   16743 C5        -400.7856  -266.6774   474.9344 C5            1 RES     
   16744 C5        -400.5628  -268.1742   475.2572 C5            1 RES     
   16745 C5        -399.0725  -268.6366   475.2631 C5            1 RES     
   16746 C5        -398.5176  -269.1929   476.6106 C5            1 RES     
   16747 C5        -399.3094  -270.4371   477.1084 C5            1 RES     
   16748 C5        -399.2037  -270.6317   478.6326 C5            1 RES     
   16749 C5        -400.3606  -271.4990   479.1734 C5            1 RES     
   16750 C5        -400.4140  -271.4514   480.7111 C5            1 RES     
   16751 C5        -401.7097  -272.0433   481.2944 C5            1 RES     
   16752 C5        -401.8688  -273.5395   481.0477 C5            1 RES     
   16753 C5        -396.9842  -269.4355   476.4249 C5            1 RES     
   16754 C0        -395.9197  -269.7029   477.5577 C0            1 RES     
   16755 C5        -394.6474  -270.2758   476.7949 C5            1 RES     
   16756 C5        -394.4601  -271.8259   476.9073 C5            1 RES     
   16757 C5        -393.6876  -272.2735   478.1919 C5            1 RES     
   16758 C5        -392.1627  -272.0139   478.1780 C5            1 RES     
   16759 C5        -391.4595  -272.2932   479.5188 C5            1 RES     
   16760 C5        -391.3420  -273.7791   479.9084 C5            1 RES     
   16761 C5        -390.5054  -274.6448   478.9417 C5            1 RES     
   16762 C5        -389.0564  -274.1691   478.7930 C5            1 RES     
   16763 C5        -393.9049  -272.4879   475.6024 C5            1 RES     
   16764 C5        -392.7097  -271.7971   474.8961 C5            1 RES     
   16765 C5        -392.1077  -272.6427   473.7511 C5            1 RES     
   16766 C5        -393.1019  -272.9769   472.6228 C5            1 RES     
   16767 C5        -392.4783  -273.8116   471.4859 C5            1 RES     
   16768 C5        -391.4103  -273.0475   470.6795 C5            1 RES     
   16769 C5        -390.7866  -273.8814   469.5459 C5            1 RES     
   16770 C5        -391.7840  -274.2880   468.4601 C5            1 RES     
   16771 H6        -402.5116  -262.0288   475.3615 H6            1 RES     
   16772 H6        -402.5088  -260.5178   476.3270 H6            1 RES     
   16773 H6        -403.1957  -262.0251   477.0405 H6            1 RES     
   16774 H6        -400.2303  -261.5371   476.2926 H6            1 RES     
   16775 H6        -400.9291  -261.4632   477.9497 H6            1 RES     
   16776 H6        -399.7774  -263.5904   477.6226 H6            1 RES     
   16777 H6        -401.5407  -263.8511   477.8705 H6            1 RES     
   16778 H6        -400.0991  -263.9008   475.1201 H6            1 RES     
   16779 H6        -401.8551  -264.2100   475.4266 H6            1 RES     
   16780 H6        -399.4905  -265.8770   476.5111 H6            1 RES     
   16781 H6        -401.2426  -266.1006   476.9339 H6            1 RES     
   16782 H6        -401.8583  -266.5512   474.6666 H6            1 RES     
   16783 H6        -400.1781  -266.3742   474.0547 H6            1 RES     
   16784 H6        -401.1092  -268.4102   476.1926 H6            1 RES     
   16785 H6        -401.0587  -268.7530   474.4492 H6            1 RES     
   16786 H6        -398.4557  -267.7592   474.9643 H6            1 RES     
   16787 H6        -398.9241  -269.3965   474.4655 H6            1 RES     
   16788 H6        -398.7236  -268.3912   477.2840 H6            1 RES     
   16789 H6        -400.3796  -270.2414   476.9238 H6            1 RES     
   16790 H6        -399.0680  -271.3595   476.5372 H6            1 RES     
   16791 H6        -398.2075  -271.0265   478.9242 H6            1 RES     
   16792 H6        -399.3378  -269.6335   479.0997 H6            1 RES     
   16793 H6        -400.2806  -272.5418   478.7982 H6            1 RES     
   16794 H6        -401.3166  -271.0641   478.8057 H6            1 RES     
   16795 H6        -399.5208  -271.9495   481.1441 H6            1 RES     
   16796 H6        -400.4017  -270.3836   481.0253 H6            1 RES     
   16797 H6        -402.5879  -271.5060   480.8716 H6            1 RES     
   16798 H6        -401.7058  -271.8732   482.3930 H6            1 RES     
   16799 H6        -401.0179  -274.0929   481.4969 H6            1 RES     
   16800 H6        -401.9290  -273.7601   479.9626 H6            1 RES     
   16801 H6        -402.8105  -273.8873   481.5245 H6            1 RES     
   16802 H6        -396.5678  -268.5602   475.8783 H6            1 RES     
   16803 H6        -396.9529  -270.3016   475.7233 H6            1 RES     
   16804 H6        -394.7546  -270.0244   475.7188 H6            1 RES     
   16805 H6        -393.7066  -269.7560   477.0233 H6            1 RES     
   16806 H6        -395.4811  -272.2595   477.0141 H6            1 RES     
   16807 H6        -394.1499  -271.7624   479.0640 H6            1 RES     
   16808 H6        -393.8322  -273.3664   478.3301 H6            1 RES     
   16809 H6        -391.6656  -272.6191   477.4002 H6            1 RES     
   16810 H6        -391.9874  -270.9552   477.9368 H6            1 RES     
   16811 H6        -390.4362  -271.8649   479.4749 H6            1 RES     
   16812 H6        -391.9949  -271.7515   480.3244 H6            1 RES     
   16813 H6        -392.3567  -274.2186   480.0015 H6            1 RES     
   16814 H6        -390.8628  -273.8288   480.9111 H6            1 RES     
   16815 H6        -390.9814  -274.6880   477.9408 H6            1 RES     
   16816 H6        -390.4837  -275.6801   479.3452 H6            1 RES     
   16817 H6        -388.5533  -274.1378   479.7829 H6            1 RES     
   16818 H6        -388.5008  -274.8719   478.1369 H6            1 RES     
   16819 H6        -389.0084  -273.1652   478.3235 H6            1 RES     
   16820 H6        -394.7321  -272.4887   474.8614 H6            1 RES     
   16821 H6        -393.6653  -273.5497   475.8295 H6            1 RES     
   16822 H6        -391.8797  -271.5940   475.5878 H6            1 RES     
   16823 H6        -393.0281  -270.8156   474.4915 H6            1 RES     
   16824 H6        -391.2589  -272.0600   473.3376 H6            1 RES     
   16825 H6        -391.7043  -273.5898   474.1725 H6            1 RES     
   16826 H6        -393.5332  -272.0428   472.2025 H6            1 RES     
   16827 H6        -393.9273  -273.5844   473.0491 H6            1 RES     
   16828 H6        -392.0426  -274.7449   471.9059 H6            1 RES     
   16829 H6        -393.3061  -274.0919   470.8021 H6            1 RES     
   16830 H6        -390.5789  -272.7548   471.3522 H6            1 RES     
   16831 H6        -391.8567  -272.1231   470.2520 H6            1 RES     
   16832 H6        -389.9947  -273.2665   469.0650 H6            1 RES     
   16833 H6        -390.3076  -274.7918   469.9670 H6            1 RES     
   16834 H6        -392.5653  -274.9633   468.8630 H6            1 RES     
   16835 H6        -391.2475  -274.8345   467.6556 H6            1 RES     
   16836 H6        -392.2621  -273.3882   468.0186 H6            1 RES     
   16837 C0        -406.4735  -262.5048   479.7905 C0            1 RES     
   16838 C0        -407.1956  -262.0649   481.0645 C0            1 RES     
   16839 C0        -406.7587  -262.7553   482.1451 C0            1 RES     
   16840 S1        -407.4741  -262.2682   483.5778 S1            1 RES     
   16841 C0        -408.4169  -261.0854   482.7941 C0            1 RES     
   16842 C0        -408.1025  -261.0701   481.4245 C0            1 RES     
   16843 C0        -405.6744  -263.5935   481.7651 C0            1 RES     
   16844 C0        -405.4530  -263.4226   480.4813 C0            1 RES     
   16845 C0        -404.2004  -264.0292   480.0704 C0            1 RES     
   16846 C0        -403.5850  -264.6523   481.1455 C0            1 RES     
   16847 S1        -404.4994  -264.5562   482.6981 S1            1 RES     
   16848 H2        -408.4853  -260.3251   480.7601 H2            1 RES     
   16849 H2        -403.7244  -263.8958   479.1142 H2            1 RES     
   16850 N3        -411.3381  -258.7415   483.1969 N3            1 RES     
   16851 C0        -410.4052  -259.5727   482.6507 C0            1 RES     
   16852 C0        -409.4025  -260.1753   483.4368 C0            1 RES     
   16853 C0        -409.4163  -259.8898   484.8122 C0            1 RES     
   16854 N3        -408.5222  -260.3835   485.7099 N3            1 RES     
   16855 S1        -409.0150  -259.6865   487.1263 S1            1 RES     
   16856 N3        -410.3207  -258.7753   486.6873 N3            1 RES     
   16857 C0        -410.3938  -259.0117   485.3521 C0            1 RES     
   16858 C0        -411.3544  -258.4443   484.5251 C0            1 RES     
   16859 H4        -410.4674  -259.7902   481.5991 H4            1 RES     
   16860 C5        -410.8825  -253.7533   480.9729 C5            1 RES     
   16861 C5        -409.6278  -254.6149   481.1235 C5            1 RES     
   16862 C5        -409.8794  -256.1179   480.9084 C5            1 RES     
   16863 C5        -410.3877  -256.4764   479.4981 C5            1 RES     
   16864 C5        -410.5589  -257.9991   479.3598 C5            1 RES     
   16865 C5        -411.2635  -258.4019   478.0566 C5            1 RES     
   16866 C5        -411.5071  -259.9270   477.9621 C5            1 RES     
   16867 C5        -410.2695  -260.7704   477.5240 C5            1 RES     
   16868 C5        -409.7476  -261.8292   478.5437 C5            1 RES     
   16869 C5        -410.8294  -262.8894   478.9024 C5            1 RES     
   16870 C5        -410.5817  -263.5430   480.2748 C5            1 RES     
   16871 C5        -411.8729  -264.1686   480.8443 C5            1 RES     
   16872 C5        -411.6913  -264.5601   482.3220 C5            1 RES     
   16873 C5        -413.0147  -264.9074   483.0274 C5            1 RES     
   16874 C5        -413.6943  -266.1578   482.4805 C5            1 RES     
   16875 C5        -408.4238  -262.4278   477.9660 C5            1 RES     
   16876 C0        -407.3607  -263.3030   478.7352 C0            1 RES     
   16877 C5        -406.4709  -263.9612   477.5933 C5            1 RES     
   16878 C5        -406.7949  -265.4634   477.2954 C5            1 RES     
   16879 C5        -406.0427  -266.4657   478.2319 C5            1 RES     
   16880 C5        -404.5361  -266.6531   477.9359 C5            1 RES     
   16881 C5        -403.7848  -267.4984   478.9805 C5            1 RES     
   16882 C5        -404.1138  -269.0035   478.9756 C5            1 RES     
   16883 C5        -403.7562  -269.7471   477.6705 C5            1 RES     
   16884 C5        -402.2675  -269.6763   477.3146 C5            1 RES     
   16885 C5        -406.6797  -265.8428   475.7814 C5            1 RES     
   16886 C5        -405.4345  -265.3408   475.0055 C5            1 RES     
   16887 C5        -405.3141  -265.9478   473.5893 C5            1 RES     
   16888 C5        -406.5107  -265.6436   472.6679 C5            1 RES     
   16889 C5        -406.3654  -266.2491   471.2571 C5            1 RES     
   16890 C5        -405.2286  -265.6150   470.4323 C5            1 RES     
   16891 C5        -405.0825  -266.2209   469.0247 C5            1 RES     
   16892 C5        -406.3001  -265.9942   468.1274 C5            1 RES     
   16893 H6        -411.2707  -253.7930   479.9350 H6            1 RES     
   16894 H6        -410.6313  -252.6954   481.2006 H6            1 RES     
   16895 H6        -411.6722  -254.0886   481.6782 H6            1 RES     
   16896 H6        -408.8490  -254.2576   480.4167 H6            1 RES     
   16897 H6        -409.2439  -254.4785   482.1589 H6            1 RES     
   16898 H6        -408.9214  -256.6507   481.0931 H6            1 RES     
   16899 H6        -410.6181  -256.4657   481.6640 H6            1 RES     
   16900 H6        -409.6754  -256.1116   478.7261 H6            1 RES     
   16901 H6        -411.3731  -255.9901   479.3393 H6            1 RES     
   16902 H6        -409.5686  -258.4960   479.4432 H6            1 RES     
   16903 H6        -411.2180  -258.3314   480.1856 H6            1 RES     
   16904 H6        -412.2597  -257.9067   478.0744 H6            1 RES     
   16905 H6        -410.7194  -258.0383   477.1584 H6            1 RES     
   16906 H6        -411.9640  -260.2628   478.9149 H6            1 RES     
   16907 H6        -412.2751  -260.0801   477.1744 H6            1 RES     
   16908 H6        -409.4449  -260.0546   477.3074 H6            1 RES     
   16909 H6        -410.4952  -261.2733   476.5587 H6            1 RES     
   16910 H6        -409.5793  -261.2357   479.4143 H6            1 RES     
   16911 H6        -411.7886  -262.3556   479.0146 H6            1 RES     
   16912 H6        -410.9905  -263.6332   478.0923 H6            1 RES     
   16913 H6        -409.7426  -264.2693   480.2340 H6            1 RES     
   16914 H6        -410.3100  -262.7297   480.9799 H6            1 RES     
   16915 H6        -412.1970  -265.0343   480.2279 H6            1 RES     
   16916 H6        -412.6720  -263.3947   480.8136 H6            1 RES     
   16917 H6        -410.9627  -265.3932   482.4140 H6            1 RES     
   16918 H6        -411.2814  -263.6795   482.8659 H6            1 RES     
   16919 H6        -413.7148  -264.0456   482.9508 H6            1 RES     
   16920 H6        -412.8005  -265.0745   484.1054 H6            1 RES     
   16921 H6        -413.0213  -267.0343   482.5844 H6            1 RES     
   16922 H6        -413.9758  -266.0251   481.4161 H6            1 RES     
   16923 H6        -414.6213  -266.3505   483.0624 H6            1 RES     
   16924 H6        -407.8215  -261.5849   477.5596 H6            1 RES     
   16925 H6        -408.7804  -263.0229   477.0930 H6            1 RES     
   16926 H6        -406.6384  -263.3863   476.6583 H6            1 RES     
   16927 H6        -405.3888  -263.8174   477.7188 H6            1 RES     
   16928 H6        -407.8763  -265.6038   477.5251 H6            1 RES     
   16929 H6        -406.1821  -266.1237   479.2803 H6            1 RES     
   16930 H6        -406.5210  -267.4643   478.1399 H6            1 RES     
   16931 H6        -404.3822  -267.1184   476.9469 H6            1 RES     
   16932 H6        -404.0550  -265.6643   477.9155 H6            1 RES     
   16933 H6        -402.6942  -267.3819   478.8085 H6            1 RES     
   16934 H6        -403.9915  -267.0886   479.9897 H6            1 RES     
   16935 H6        -405.1931  -269.1471   479.1895 H6            1 RES     
   16936 H6        -403.5426  -269.4771   479.8044 H6            1 RES     
   16937 H6        -404.3549  -269.3598   476.8209 H6            1 RES     
   16938 H6        -404.0230  -270.8175   477.8055 H6            1 RES     
   16939 H6        -401.6490  -270.0789   478.1448 H6            1 RES     
   16940 H6        -402.0744  -270.2829   476.4046 H6            1 RES     
   16941 H6        -401.9553  -268.6349   477.0941 H6            1 RES     
   16942 H6        -407.5556  -265.3940   475.2666 H6            1 RES     
   16943 H6        -406.7767  -266.9470   475.6943 H6            1 RES     
   16944 H6        -404.4959  -265.5909   475.5202 H6            1 RES     
   16945 H6        -405.4625  -264.2358   474.9237 H6            1 RES     
   16946 H6        -404.3869  -265.5329   473.1430 H6            1 RES     
   16947 H6        -405.1931  -267.0501   473.6758 H6            1 RES     
   16948 H6        -406.6620  -264.5455   472.5857 H6            1 RES     
   16949 H6        -407.4225  -266.0914   473.1152 H6            1 RES     
   16950 H6        -406.2099  -267.3475   471.3383 H6            1 RES     
   16951 H6        -407.3265  -266.0724   470.7314 H6            1 RES     
   16952 H6        -404.2616  -265.7782   470.9496 H6            1 RES     
   16953 H6        -405.3982  -264.5196   470.3443 H6            1 RES     
   16954 H6        -404.2072  -265.7408   468.5351 H6            1 RES     
   16955 H6        -404.8788  -267.3108   469.1026 H6            1 RES     
   16956 H6        -407.1965  -266.5097   468.5268 H6            1 RES     
   16957 H6        -406.0938  -266.4092   467.1180 H6            1 RES     
   16958 H6        -406.5093  -264.9083   468.0276 H6            1 RES     
   16959 C0        -414.5035  -254.4100   484.9057 C0            1 RES     
   16960 C0        -414.8525  -254.1778   486.3762 C0            1 RES     
   16961 C0        -414.5226  -255.2478   487.1386 C0            1 RES     
   16962 S1        -414.8275  -255.0207   488.7687 S1            1 RES     
   16963 C0        -415.4242  -253.4453   488.5161 C0            1 RES     
   16964 C0        -415.3179  -253.1189   487.1533 C0            1 RES     
   16965 C0        -413.8427  -256.2076   486.3392 C0            1 RES     
   16966 C0        -413.7593  -255.7380   485.1149 C0            1 RES     
   16967 C0        -412.8499  -256.5244   484.3024 C0            1 RES     
   16968 C0        -412.3318  -257.5815   485.0352 C0            1 RES     
   16969 S1        -412.9353  -257.6908   486.7323 S1            1 RES     
   16970 H2        -415.5209  -252.1359   486.7851 H2            1 RES     
   16971 H2        -412.4956  -256.2564   483.3219 H2            1 RES     
   16972 N3        -417.3148  -250.5995   490.1026 N3            1 RES     
   16973 C0        -416.7970  -251.4616   489.1817 C0            1 RES     
   16974 C0        -415.9515  -252.5244   489.5586 C0            1 RES     
   16975 C0        -415.6767  -252.6621   490.9293 C0            1 RES     
   16976 N3        -414.8807  -253.6274   491.4618 N3            1 RES     
   16977 S1        -414.9104  -253.2663   493.0753 S1            1 RES     
   16978 N3        -415.8876  -251.9379   493.1670 N3            1 RES     
   16979 C0        -416.2215  -251.7427   491.8653 C0            1 RES     
   16980 C0        -417.0452  -250.7120   491.4320 C0            1 RES     
   16981 H4        -417.0746  -251.3353   488.1501 H4            1 RES     
   16982 C5        -415.5460  -245.5178   489.0613 C5            1 RES     
   16983 C5        -414.6405  -246.7022   488.7199 C5            1 RES     
   16984 C5        -415.4042  -247.9422   488.2221 C5            1 RES     
   16985 C5        -416.1951  -247.7142   486.9188 C5            1 RES     
   16986 C5        -416.8795  -249.0173   486.4709 C5            1 RES     
   16987 C5        -417.8532  -248.8059   485.3029 C5            1 RES     
   16988 C5        -418.5999  -250.1036   484.9123 C5            1 RES     
   16989 C5        -417.7868  -251.0943   484.0221 C5            1 RES     
   16990 C5        -417.5084  -252.5071   484.6217 C5            1 RES     
   16991 C5        -418.8191  -253.2768   484.9571 C5            1 RES     
   16992 C5        -418.6125  -254.3454   486.0467 C5            1 RES     
   16993 C5        -419.9448  -254.7208   486.7303 C5            1 RES     
   16994 C5        -419.6982  -255.5620   487.9956 C5            1 RES     
   16995 C5        -420.9490  -255.7138   488.8798 C5            1 RES     
   16996 C5        -422.0747  -256.5055   488.2236 C5            1 RES     
   16997 C5        -416.5531  -253.2573   483.6373 C5            1 RES     
   16998 C0        -415.7441  -254.5813   483.9209 C0            1 RES     
   16999 C5        -415.2926  -255.0989   482.4867 C5            1 RES     
   17000 C5        -416.1352  -256.2936   481.9271 C5            1 RES     
   17001 C5        -415.6349  -257.6951   482.4093 C5            1 RES     
   17002 C5        -414.3331  -258.2035   481.7462 C5            1 RES     
   17003 C5        -413.7664  -259.4930   482.3676 C5            1 RES     
   17004 C5        -414.5735  -260.7746   482.0856 C5            1 RES     
   17005 C5        -414.6697  -261.1728   480.5969 C5            1 RES     
   17006 C5        -413.3074  -261.4226   479.9414 C5            1 RES     
   17007 C5        -416.3659  -256.2296   480.3805 C5            1 RES     
   17008 C5        -415.1465  -255.8939   479.4832 C5            1 RES     
   17009 C5        -415.4342  -256.0681   477.9748 C5            1 RES     
   17010 C5        -416.5787  -255.1839   477.4438 C5            1 RES     
   17011 C5        -416.8419  -255.3654   475.9353 C5            1 RES     
   17012 C5        -415.6866  -254.8642   475.0470 C5            1 RES     
   17013 C5        -415.9488  -255.0471   473.5413 C5            1 RES     
   17014 C5        -417.1352  -254.2350   473.0196 C5            1 RES     
   17015 H6        -416.0669  -245.1413   488.1577 H6            1 RES     
   17016 H6        -414.9287  -244.6882   489.4671 H6            1 RES     
   17017 H6        -416.2952  -245.8086   489.8280 H6            1 RES     
   17018 H6        -413.8945  -246.3878   487.9593 H6            1 RES     
   17019 H6        -414.0919  -246.9885   489.6446 H6            1 RES     
   17020 H6        -414.6615  -248.7526   488.0566 H6            1 RES     
   17021 H6        -416.1028  -248.2734   489.0219 H6            1 RES     
   17022 H6        -415.5178  -247.3552   486.1133 H6            1 RES     
   17023 H6        -416.9752  -246.9462   487.1042 H6            1 RES     
   17024 H6        -416.1090  -249.7742   486.2107 H6            1 RES     
   17025 H6        -417.4889  -249.3773   487.3229 H6            1 RES     
   17026 H6        -418.6157  -248.0783   485.6598 H6            1 RES     
   17027 H6        -417.3509  -248.3637   484.4157 H6            1 RES     
   17028 H6        -419.0040  -250.5609   485.8380 H6            1 RES     
   17029 H6        -419.4776  -249.7971   484.3044 H6            1 RES     
   17030 H6        -416.8104  -250.6085   483.7986 H6            1 RES     
   17031 H6        -418.2996  -251.2079   483.0424 H6            1 RES     
   17032 H6        -417.0323  -252.2668   485.5459 H6            1 RES     
   17033 H6        -419.5210  -252.5520   485.4039 H6            1 RES     
   17034 H6        -419.3298  -253.6742   484.0534 H6            1 RES     
   17035 H6        -418.0766  -255.2333   485.6496 H6            1 RES     
   17036 H6        -417.9903  -253.8849   486.8425 H6            1 RES     
   17037 H6        -420.6209  -255.2405   486.0180 H6            1 RES     
   17038 H6        -420.4377  -253.7798   487.0619 H6            1 RES     
   17039 H6        -419.2821  -256.5552   487.7240 H6            1 RES     
   17040 H6        -418.9473  -255.0317   488.6234 H6            1 RES     
   17041 H6        -421.3269  -254.7069   489.1664 H6            1 RES     
   17042 H6        -420.6536  -256.2422   489.8123 H6            1 RES     
   17043 H6        -421.7232  -257.5262   487.9656 H6            1 RES     
   17044 H6        -422.4424  -255.9935   487.3112 H6            1 RES     
   17045 H6        -422.9218  -256.5911   488.9379 H6            1 RES     
   17046 H6        -415.7685  -252.5375   483.3141 H6            1 RES     
   17047 H6        -417.2057  -253.4455   482.7529 H6            1 RES     
   17048 H6        -415.3892  -254.2528   481.7743 H6            1 RES     
   17049 H6        -414.2179  -255.3085   482.3952 H6            1 RES     
   17050 H6        -417.1583  -256.1850   482.3551 H6            1 RES     
   17051 H6        -415.5044  -257.6502   483.5123 H6            1 RES     
   17052 H6        -416.4254  -258.4464   482.1969 H6            1 RES     
   17053 H6        -414.4827  -258.3825   480.6674 H6            1 RES     
   17054 H6        -413.5590  -257.4290   481.8495 H6            1 RES     
   17055 H6        -412.7345  -259.6428   481.9865 H6            1 RES     
   17056 H6        -413.6817  -259.3556   483.4645 H6            1 RES     
   17057 H6        -415.5980  -260.6650   482.4975 H6            1 RES     
   17058 H6        -414.0817  -261.6106   482.6302 H6            1 RES     
   17059 H6        -415.2188  -260.4019   480.0186 H6            1 RES     
   17060 H6        -415.2550  -262.1156   480.5347 H6            1 RES     
   17061 H6        -412.7476  -262.2074   480.4934 H6            1 RES     
   17062 H6        -413.4562  -261.7649   478.8955 H6            1 RES     
   17063 H6        -412.7015  -260.4941   479.9057 H6            1 RES     
   17064 H6        -417.1062  -255.4226   480.1956 H6            1 RES     
   17065 H6        -416.8351  -257.1860   480.0620 H6            1 RES     
   17066 H6        -414.2818  -256.5370   479.7002 H6            1 RES     
   17067 H6        -414.8174  -254.8522   479.6703 H6            1 RES     
   17068 H6        -414.4942  -255.8190   477.4407 H6            1 RES     
   17069 H6        -415.6751  -257.1349   477.7719 H6            1 RES     
   17070 H6        -416.3668  -254.1138   477.6567 H6            1 RES     
   17071 H6        -417.5152  -255.4678   477.9677 H6            1 RES     
   17072 H6        -417.0500  -256.4367   475.7205 H6            1 RES     
   17073 H6        -417.7535  -254.7798   475.6957 H6            1 RES     
   17074 H6        -414.7662  -255.4366   475.2804 H6            1 RES     
   17075 H6        -415.4936  -253.7896   475.2579 H6            1 RES     
   17076 H6        -415.0416  -254.7112   472.9931 H6            1 RES     
   17077 H6        -416.1096  -256.1233   473.3144 H6            1 RES     
   17078 H6        -418.0865  -254.5709   473.4791 H6            1 RES     
   17079 H6        -417.2220  -254.3769   471.9215 H6            1 RES     
   17080 H6        -416.9839  -253.1544   473.2261 H6            1 RES     
   17081 C0        -418.5905  -246.2508   493.4436 C0            1 RES     
   17082 C0        -418.6328  -246.3706   494.9674 C0            1 RES     
   17083 C0        -418.5732  -247.6645   495.3643 C0            1 RES     
   17084 S1        -418.5537  -247.8482   497.0279 S1            1 RES     
   17085 C0        -418.6229  -246.1666   497.2913 C0            1 RES     
   17086 C0        -418.6065  -245.4995   496.0546 C0            1 RES     
   17087 C0        -418.3696  -248.4989   494.2308 C0            1 RES     
   17088 C0        -418.3077  -247.7349   493.1637 C0            1 RES     
   17089 C0        -417.8342  -248.4716   492.0066 C0            1 RES     
   17090 C0        -417.5991  -249.7978   492.3361 C0            1 RES     
   17091 S1        -417.9603  -250.2247   494.0518 S1            1 RES     
   17092 H2        -418.5212  -244.4362   495.9816 H2            1 RES     
   17093 H2        -417.5523  -248.0394   491.0619 H2            1 RES     
   17094 N3        -419.2195  -243.4984   499.8825 N3            1 RES     
   17095 C0        -419.1518  -244.1624   498.6935 C0            1 RES     
   17096 C0        -418.6630  -245.4818   498.6113 C0            1 RES     
   17097 C0        -418.2602  -246.0860   499.8138 C0            1 RES     
   17098 N3        -417.7633  -247.3479   499.9126 N3            1 RES     
   17099 S1        -417.4450  -247.4817   501.5299 S1            1 RES     
   17100 N3        -417.9028  -246.0196   502.1470 N3            1 RES     
   17101 C0        -418.3319  -245.3664   501.0366 C0            1 RES     
   17102 C0        -418.8190  -244.0660   501.0530 C0            1 RES     
   17103 H4        -419.5135  -243.6670   497.8098 H4            1 RES     
   17104 C5        -416.0290  -239.0467   499.6859 C5            1 RES     
   17105 C5        -415.6252  -240.2838   498.8824 C5            1 RES     
   17106 C5        -416.8190  -241.0567   498.2940 C5            1 RES     
   17107 C5        -417.6638  -240.2446   497.2926 C5            1 RES     
   17108 C5        -418.7976  -241.1120   496.7188 C5            1 RES     
   17109 C5        -419.7995  -240.3032   495.8827 C5            1 RES     
   17110 C5        -420.9815  -241.1649   495.3783 C5            1 RES     
   17111 C5        -420.6766  -242.0385   494.1218 C5            1 RES     
   17112 C5        -420.8017  -243.5835   494.2963 C5            1 RES     
   17113 C5        -422.2329  -244.0165   494.7290 C5            1 RES     
   17114 C5        -422.2420  -245.3701   495.4636 C5            1 RES     
   17115 C5        -423.5136  -245.5386   496.3226 C5            1 RES     
   17116 C5        -423.3853  -246.7471   497.2674 C5            1 RES     
   17117 C5        -424.4785  -246.7928   498.3501 C5            1 RES     
   17118 C5        -425.8834  -247.0078   497.7981 C5            1 RES     
   17119 C5        -420.2977  -244.2497   492.9747 C5            1 RES     
   17120 C0        -419.9426  -245.7703   492.7516 C0            1 RES     
   17121 C5        -419.8943  -245.9505   491.1723 C5            1 RES     
   17122 C5        -421.1553  -246.6417   490.5538 C5            1 RES     
   17123 C5        -421.0861  -248.2044   490.5699 C5            1 RES     
   17124 C5        -420.1335  -248.8411   489.5307 C5            1 RES     
   17125 C5        -419.9458  -250.3608   489.6897 C5            1 RES     
   17126 C5        -421.1635  -251.2227   489.3053 C5            1 RES     
   17127 C5        -421.5942  -251.1240   487.8259 C5            1 RES     
   17128 C5        -420.4982  -251.5434   486.8407 C5            1 RES     
   17129 C5        -421.5661  -246.0658   489.1578 C5            1 RES     
   17130 C5        -420.4430  -245.8393   488.1128 C5            1 RES     
   17131 C5        -420.9807  -245.4762   486.7101 C5            1 RES     
   17132 C5        -421.8293  -244.1910   486.6722 C5            1 RES     
   17133 C5        -422.3466  -243.8413   485.2622 C5            1 RES     
   17134 C5        -421.2271  -243.4482   484.2788 C5            1 RES     
   17135 C5        -421.7435  -243.1010   482.8709 C5            1 RES     
   17136 C5        -422.6538  -241.8725   482.8344 C5            1 RES     
   17137 H6        -416.5166  -238.2917   499.0366 H6            1 RES     
   17138 H6        -415.1209  -238.5808   500.1245 H6            1 RES     
   17139 H6        -416.7168  -239.3262   500.5120 H6            1 RES     
   17140 H6        -414.9316  -239.9837   498.0684 H6            1 RES     
   17141 H6        -415.0789  -240.9703   499.5666 H6            1 RES     
   17142 H6        -416.4184  -241.9577   497.7808 H6            1 RES     
   17143 H6        -417.4684  -241.3971   499.1306 H6            1 RES     
   17144 H6        -417.0258  -239.8712   496.4620 H6            1 RES     
   17145 H6        -418.1106  -239.3775   497.8231 H6            1 RES     
   17146 H6        -418.3665  -241.9443   496.1223 H6            1 RES     
   17147 H6        -419.3661  -241.5190   497.5779 H6            1 RES     
   17148 H6        -420.2192  -239.5283   496.5620 H6            1 RES     
   17149 H6        -419.3086  -239.7807   495.0336 H6            1 RES     
   17150 H6        -421.3804  -241.7401   496.2382 H6            1 RES     
   17151 H6        -421.7837  -240.4601   495.0726 H6            1 RES     
   17152 H6        -419.6359  -241.8037   493.8039 H6            1 RES     
   17153 H6        -421.3300  -241.7115   493.2841 H6            1 RES     
   17154 H6        -420.1483  -243.7682   495.1194 H6            1 RES     
   17155 H6        -422.5844  -243.2875   495.4791 H6            1 RES     
   17156 H6        -422.9679  -243.9717   493.8964 H6            1 RES     
   17157 H6        -422.0924  -246.2161   494.7598 H6            1 RES     
   17158 H6        -421.3972  -245.3571   496.1837 H6            1 RES     
   17159 H6        -424.4166  -245.6150   495.6798 H6            1 RES     
   17160 H6        -423.6145  -244.6371   496.9671 H6            1 RES     
   17161 H6        -423.3649  -247.6923   496.6848 H6            1 RES     
   17162 H6        -422.4208  -246.6573   497.8159 H6            1 RES     
   17163 H6        -424.4567  -245.8502   498.9415 H6            1 RES     
   17164 H6        -424.2476  -247.6316   499.0421 H6            1 RES     
   17165 H6        -425.9305  -247.9640   497.2364 H6            1 RES     
   17166 H6        -426.1844  -246.1695   497.1375 H6            1 RES     
   17167 H6        -426.6019  -247.0569   498.6445 H6            1 RES     
   17168 H6        -419.3721  -243.7178   492.6604 H6            1 RES     
   17169 H6        -421.0928  -243.9794   492.2412 H6            1 RES     
   17170 H6        -419.8035  -244.9416   490.7178 H6            1 RES     
   17171 H6        -418.9742  -246.4175   490.7947 H6            1 RES     
   17172 H6        -422.0137  -246.3801   491.2145 H6            1 RES     
   17173 H6        -420.7949  -248.5229   491.5943 H6            1 RES     
   17174 H6        -422.1027  -248.6067   490.3716 H6            1 RES     
   17175 H6        -420.4837  -248.6470   488.5022 H6            1 RES     
   17176 H6        -419.1399  -248.3812   489.6349 H6            1 RES     
   17177 H6        -419.0863  -250.6764   489.0617 H6            1 RES     
   17178 H6        -419.6674  -250.5801   490.7402 H6            1 RES     
   17179 H6        -422.0251  -250.9550   489.9514 H6            1 RES     
   17180 H6        -420.9059  -252.2844   489.5145 H6            1 RES     
   17181 H6        -421.9316  -250.0957   487.5826 H6            1 RES     
   17182 H6        -422.4618  -251.8028   487.6787 H6            1 RES     
   17183 H6        -420.1591  -252.5797   487.0534 H6            1 RES     
   17184 H6        -420.8973  -251.5084   485.8049 H6            1 RES     
   17185 H6        -419.6298  -250.8548   486.8873 H6            1 RES     
   17186 H6        -422.0147  -245.0660   489.3382 H6            1 RES     
   17187 H6        -422.3659  -246.7148   488.7388 H6            1 RES     
   17188 H6        -419.8194  -246.7338   487.9730 H6            1 RES     
   17189 H6        -419.7640  -245.0345   488.4589 H6            1 RES     
   17190 H6        -420.0960  -245.3566   486.0513 H6            1 RES     
   17191 H6        -421.5879  -246.3242   486.3233 H6            1 RES     
   17192 H6        -421.2467  -243.3348   487.0757 H6            1 RES     
   17193 H6        -422.7237  -244.3403   487.3124 H6            1 RES     
   17194 H6        -422.9264  -244.6991   484.8557 H6            1 RES     
   17195 H6        -423.0362  -242.9797   485.3777 H6            1 RES     
   17196 H6        -420.5258  -244.2985   484.1586 H6            1 RES     
   17197 H6        -420.6608  -242.5820   484.6857 H6            1 RES     
   17198 H6        -420.8625  -242.8887   482.2264 H6            1 RES     
   17199 H6        -422.2825  -243.9730   482.4412 H6            1 RES     
   17200 H6        -423.5883  -242.0464   483.4048 H6            1 RES     
   17201 H6        -422.9358  -241.6564   481.7821 H6            1 RES     
   17202 H6        -422.1251  -240.9879   483.2479 H6            1 RES     
   17203 C0        -418.4978  -240.1428   504.3458 C0            1 RES     
   17204 C0        -418.3634  -240.6864   505.7686 C0            1 RES     
   17205 C0        -418.6816  -242.0018   505.8285 C0            1 RES     
   17206 S1        -418.4911  -242.6621   507.3547 S1            1 RES     
   17207 C0        -417.9607  -241.1828   508.0122 C0            1 RES     
   17208 C0        -417.8973  -240.2157   506.9945 C0            1 RES     
   17209 C0        -418.9275  -242.4900   504.5156 C0            1 RES     
   17210 C0        -418.7658  -241.4968   503.6706 C0            1 RES     
   17211 C0        -418.7309  -241.9647   502.2975 C0            1 RES     
   17212 C0        -418.9055  -243.3393   502.2465 C0            1 RES     
   17213 S1        -419.1436  -244.1300   503.8510 S1            1 RES     
   17214 H2        -417.4751  -239.2466   507.1546 H2            1 RES     
   17215 H2        -418.4569  -241.3725   501.4414 H2            1 RES     
   17216 N3        -417.2683  -239.3347   511.2208 N3            1 RES     
   17217 C0        -417.5923  -239.6126   509.9257 C0            1 RES     
   17218 C0        -417.5857  -240.9319   509.4298 C0            1 RES     
   17219 C0        -417.2418  -241.9492   510.3354 C0            1 RES     
   17220 N3        -417.1833  -243.2712   510.0222 N3            1 RES     
   17221 S1        -416.7040  -243.9562   511.4490 S1            1 RES     
   17222 N3        -416.5593  -242.6718   512.4773 N3            1 RES     
   17223 C0        -416.8985  -241.6292   511.6762 C0            1 RES     
   17224 C0        -416.9190  -240.3086   512.1051 C0            1 RES     
   17225 H4        -417.8891  -238.7995   509.2870 H4            1 RES     
   17226 C5        -412.8421  -236.1056   511.3558 C5            1 RES     
   17227 C5        -412.9887  -237.1147   510.2159 C5            1 RES     
   17228 C5        -414.4413  -237.3132   509.7477 C5            1 RES     
   17229 C5        -415.1003  -236.0404   509.1805 C5            1 RES     
   17230 C5        -416.5262  -236.3464   508.6906 C5            1 RES     
   17231 C5        -417.3096  -235.0808   508.3143 C5            1 RES     
   17232 C5        -418.7690  -235.3885   507.9022 C5            1 RES     
   17233 C5        -418.9507  -235.9049   506.4409 C5            1 RES     
   17234 C5        -419.5557  -237.3328   506.2734 C5            1 RES     
   17235 C5        -420.9738  -237.4528   506.9039 C5            1 RES     
   17236 C5        -421.3286  -238.9023   507.2847 C5            1 RES     
   17237 C5        -422.4503  -238.9501   508.3443 C5            1 RES     
   17238 C5        -422.5992  -240.3671   508.9269 C5            1 RES     
   17239 C5        -423.4824  -240.4183   510.1866 C5            1 RES     
   17240 C5        -424.9416  -240.0582   509.9307 C5            1 RES     
   17241 C5        -419.4919  -237.6967   504.7542 C5            1 RES     
   17242 C0        -419.6966  -239.1210   504.1080 C0            1 RES     
   17243 C5        -419.9329  -238.8372   502.5612 C5            1 RES     
   17244 C5        -421.4253  -238.9333   502.0988 C5            1 RES     
   17245 C5        -421.8772  -240.3857   501.7335 C5            1 RES     
   17246 C5        -421.3455  -240.9313   500.3872 C5            1 RES     
   17247 C5        -421.6525  -242.4196   500.1403 C5            1 RES     
   17248 C5        -423.1284  -242.7524   499.8498 C5            1 RES     
   17249 C5        -423.7048  -242.1081   498.5705 C5            1 RES     
   17250 C5        -422.9598  -242.5114   497.2938 C5            1 RES     
   17251 C5        -421.8131  -237.8829   501.0053 C5            1 RES     
   17252 C5        -420.8368  -237.6859   499.8168 C5            1 RES     
   17253 C5        -421.4145  -236.7923   498.6959 C5            1 RES     
   17254 C5        -421.7848  -235.3680   499.1514 C5            1 RES     
   17255 C5        -422.3490  -234.4904   498.0159 C5            1 RES     
   17256 C5        -421.3121  -234.1581   496.9253 C5            1 RES     
   17257 C5        -421.8760  -233.2836   495.7910 C5            1 RES     
   17258 C5        -422.3225  -231.8942   496.2485 C5            1 RES     
   17259 H6        -413.1374  -235.0885   511.0278 H6            1 RES     
   17260 H6        -411.7788  -236.0636   511.6749 H6            1 RES     
   17261 H6        -413.4607  -236.4094   512.2269 H6            1 RES     
   17262 H6        -412.3562  -236.7973   509.3597 H6            1 RES     
   17263 H6        -412.6110  -238.0960   510.5797 H6            1 RES     
   17264 H6        -414.4386  -238.0992   508.9617 H6            1 RES     
   17265 H6        -415.0428  -237.6865   510.6058 H6            1 RES     
   17266 H6        -414.4976  -235.6355   508.3383 H6            1 RES     
   17267 H6        -415.1549  -235.2776   509.9854 H6            1 RES     
   17268 H6        -416.4840  -237.0538   507.8349 H6            1 RES     
   17269 H6        -417.0711  -236.8100   509.5362 H6            1 RES     
   17270 H6        -417.3487  -234.4534   509.2323 H6            1 RES     
   17271 H6        -416.7973  -234.4929   507.5226 H6            1 RES     
   17272 H6        -419.2114  -236.0536   508.6711 H6            1 RES     
   17273 H6        -419.3263  -234.4292   507.9584 H6            1 RES     
   17274 H6        -417.9465  -235.8899   505.9606 H6            1 RES     
   17275 H6        -419.5691  -235.1772   505.8721 H6            1 RES     
   17276 H6        -418.8920  -237.9262   506.8616 H6            1 RES     
   17277 H6        -420.9546  -236.9071   507.8629 H6            1 RES     
   17278 H6        -421.7613  -236.9615   506.2924 H6            1 RES     
   17279 H6        -421.5685  -239.5116   506.3877 H6            1 RES     
   17280 H6        -420.4352  -239.3387   507.7785 H6            1 RES     
   17281 H6        -423.4081  -238.5779   507.9218 H6            1 RES     
   17282 H6        -422.1548  -238.2863   509.1872 H6            1 RES     
   17283 H6        -422.9756  -241.0663   508.1504 H6            1 RES     
   17284 H6        -421.5928  -240.7167   509.2494 H6            1 RES     
   17285 H6        -423.0662  -239.7360   510.9612 H6            1 RES     
   17286 H6        -423.4483  -241.4524   510.5932 H6            1 RES     
   17287 H6        -425.3816  -240.7546   509.1867 H6            1 RES     
   17288 H6        -425.0368  -239.0141   509.5694 H6            1 RES     
   17289 H6        -425.5095  -240.1488   510.8817 H6            1 RES     
   17290 H6        -418.4961  -237.3789   504.3725 H6            1 RES     
   17291 H6        -420.2468  -237.0114   504.3026 H6            1 RES     
   17292 H6        -419.5770  -237.8076   502.3465 H6            1 RES     
   17293 H6        -419.2825  -239.4122   501.8877 H6            1 RES     
   17294 H6        -422.0465  -238.6461   502.9782 H6            1 RES     
   17295 H6        -421.5675  -241.0584   502.5625 H6            1 RES     
   17296 H6        -422.9867  -240.4094   501.6809 H6            1 RES     
   17297 H6        -421.7520  -240.3545   499.5385 H6            1 RES     
   17298 H6        -420.2514  -240.8209   500.3694 H6            1 RES     
   17299 H6        -421.0435  -242.7659   499.2790 H6            1 RES     
   17300 H6        -421.3183  -243.0056   501.0201 H6            1 RES     
   17301 H6        -423.7527  -242.4545   500.7176 H6            1 RES     
   17302 H6        -423.2111  -243.8564   499.7417 H6            1 RES     
   17303 H6        -423.7124  -241.0023   498.6566 H6            1 RES     
   17304 H6        -424.7601  -242.4415   498.4682 H6            1 RES     
   17305 H6        -422.9575  -243.6161   497.1766 H6            1 RES     
   17306 H6        -423.4657  -242.0641   496.4121 H6            1 RES     
   17307 H6        -421.9146  -242.1399   497.3030 H6            1 RES     
   17308 H6        -421.8745  -236.8957   501.5106 H6            1 RES     
   17309 H6        -422.8333  -238.1285   500.6377 H6            1 RES     
   17310 H6        -420.5715  -238.6378   499.3352 H6            1 RES     
   17311 H6        -419.8878  -237.2426   500.1792 H6            1 RES     
   17312 H6        -420.6419  -236.7391   497.9015 H6            1 RES     
   17313 H6        -422.3166  -237.2834   498.2688 H6            1 RES     
   17314 H6        -420.9006  -234.8674   499.6018 H6            1 RES     
   17315 H6        -422.5789  -235.4404   499.9236 H6            1 RES     
   17316 H6        -423.2316  -234.9924   497.5616 H6            1 RES     
   17317 H6        -422.6901  -233.5428   498.4817 H6            1 RES     
   17318 H6        -420.9570  -235.0973   496.4550 H6            1 RES     
   17319 H6        -420.4393  -233.6448   497.3850 H6            1 RES     
   17320 H6        -421.0741  -233.1487   495.0325 H6            1 RES     
   17321 H6        -422.7285  -233.8032   495.3023 H6            1 RES     
   17322 H6        -423.1720  -231.9573   496.9579 H6            1 RES     
   17323 H6        -422.6615  -231.3094   495.3671 H6            1 RES     
   17324 H6        -421.4778  -231.3554   496.7271 H6            1 RES     
   17325 C0        -414.8555  -237.7769   516.0637 C0            1 RES     
   17326 C0        -414.7111  -238.7278   517.2523 C0            1 RES     
   17327 C0        -415.4361  -239.8581   517.0734 C0            1 RES     
   17328 S1        -415.2636  -240.9617   518.3199 S1            1 RES     
   17329 C0        -414.1856  -239.9513   519.1679 C0            1 RES     
   17330 C0        -413.9482  -238.7875   518.4168 C0            1 RES     
   17331 C0        -416.0116  -239.8509   515.7729 C0            1 RES     
   17332 C0        -415.6496  -238.7414   515.1692 C0            1 RES     
   17333 C0        -415.9648  -238.7770   513.7532 C0            1 RES     
   17334 C0        -416.5911  -239.9693   513.4232 C0            1 RES     
   17335 S1        -416.8507  -241.0945   514.8099 S1            1 RES     
   17336 H2        -413.2103  -238.0673   518.6995 H2            1 RES     
   17337 H2        -415.6328  -238.0623   513.0200 H2            1 RES     
   17338 N3        -412.4765  -239.3958   522.4785 N3            1 RES     
   17339 C0        -413.0525  -239.1798   521.2615 C0            1 RES     
   17340 C0        -413.5538  -240.2423   520.4828 C0            1 RES     
   17341 C0        -413.4437  -241.5337   521.0243 C0            1 RES     
   17342 N3        -413.8718  -242.6668   520.4062 N3            1 RES     
   17343 S1        -413.4519  -243.8451   521.4878 S1            1 RES     
   17344 N3        -412.7465  -243.0129   522.7279 N3            1 RES     
   17345 C0        -412.8292  -241.7302   522.2900 C0            1 RES     
   17346 C0        -412.3498  -240.6429   523.0088 C0            1 RES     
   17347 H4        -413.1491  -238.1663   520.9142 H4            1 RES     
   17348 C5        -407.2569  -237.7288   522.3633 C5            1 RES     
   17349 C5        -407.8884  -238.2763   521.0823 C5            1 RES     
   17350 C5        -409.3749  -237.9122   520.9204 C5            1 RES     
   17351 C5        -409.6468  -236.3976   520.8296 C5            1 RES     
   17352 C5        -411.1472  -236.1330   520.6159 C5            1 RES     
   17353 C5        -411.5107  -234.6459   520.7320 C5            1 RES     
   17354 C5        -413.0319  -234.3961   520.5991 C5            1 RES     
   17355 C5        -413.5777  -234.3894   519.1373 C5            1 RES     
   17356 C5        -414.6395  -235.4753   518.7816 C5            1 RES     
   17357 C5        -415.9138  -235.3707   519.6694 C5            1 RES     
   17358 C5        -416.6724  -236.7071   519.7709 C5            1 RES     
   17359 C5        -417.5861  -236.7454   521.0147 C5            1 RES     
   17360 C5        -418.1137  -238.1692   521.2684 C5            1 RES     
   17361 C5        -418.7779  -238.3362   522.6469 C5            1 RES     
   17362 C5        -420.0555  -237.5219   522.8177 C5            1 RES     
   17363 C5        -414.9138  -235.3812   517.2452 C5            1 RES     
   17364 C0        -415.6680  -236.4362   516.3474 C0            1 RES     
   17365 C5        -416.0111  -235.6578   515.0039 C5            1 RES     
   17366 C5        -417.5000  -235.1906   514.8802 C5            1 RES     
   17367 C5        -418.4548  -236.2841   514.2972 C5            1 RES     
   17368 C5        -418.3287  -236.5383   512.7767 C5            1 RES     
   17369 C5        -419.1436  -237.7400   512.2647 C5            1 RES     
   17370 C5        -420.6716  -237.5441   512.2446 C5            1 RES     
   17371 C5        -421.1748  -236.4188   511.3148 C5            1 RES     
   17372 C5        -420.7927  -236.6233   509.8452 C5            1 RES     
   17373 C5        -417.6665  -233.8017   514.1786 C5            1 RES     
   17374 C5        -416.8570  -233.5484   512.8805 C5            1 RES     
   17375 C5        -417.2565  -232.2412   512.1591 C5            1 RES     
   17376 C5        -417.0654  -230.9686   513.0060 C5            1 RES     
   17377 C5        -417.4596  -229.6756   512.2639 C5            1 RES     
   17378 C5        -416.5349  -229.3444   511.0764 C5            1 RES     
   17379 C5        -416.9297  -228.0546   510.3347 C5            1 RES     
   17380 C5        -416.8210  -226.7930   511.1925 C5            1 RES     
   17381 H6        -407.2408  -236.6201   522.3571 H6            1 RES     
   17382 H6        -406.2064  -238.0827   522.4354 H6            1 RES     
   17383 H6        -407.8126  -238.0874   523.2556 H6            1 RES     
   17384 H6        -407.3131  -237.9134   520.2042 H6            1 RES     
   17385 H6        -407.8107  -239.3858   521.1122 H6            1 RES     
   17386 H6        -409.7435  -238.4013   519.9927 H6            1 RES     
   17387 H6        -409.9397  -238.3353   521.7804 H6            1 RES     
   17388 H6        -409.0683  -235.9506   519.9918 H6            1 RES     
   17389 H6        -409.3317  -235.9206   521.7814 H6            1 RES     
   17390 H6        -411.4625  -236.5410   519.6318 H6            1 RES     
   17391 H6        -411.6908  -236.6508   521.4302 H6            1 RES     
   17392 H6        -411.2102  -234.3301   521.7558 H6            1 RES     
   17393 H6        -410.9486  -234.0209   520.0051 H6            1 RES     
   17394 H6        -413.5576  -235.1046   521.2707 H6            1 RES     
   17395 H6        -413.2255  -233.3792   521.0018 H6            1 RES     
   17396 H6        -412.7033  -234.5175   518.4602 H6            1 RES     
   17397 H6        -413.9928  -233.3839   518.9085 H6            1 RES     
   17398 H6        -414.1349  -236.3764   519.0498 H6            1 RES     
   17399 H6        -415.5803  -235.1580   520.6996 H6            1 RES     
   17400 H6        -416.5710  -234.5213   519.3831 H6            1 RES     
   17401 H6        -417.2242  -236.9340   518.8343 H6            1 RES     
   17402 H6        -415.9146  -237.5017   519.9349 H6            1 RES     
   17403 H6        -418.4153  -236.0123   520.9178 H6            1 RES     
   17404 H6        -416.9720  -236.4685   521.9005 H6            1 RES     
   17405 H6        -418.8057  -238.4751   520.4555 H6            1 RES     
   17406 H6        -417.2456  -238.8661   521.2651 H6            1 RES     
   17407 H6        -418.0546  -238.0563   523.4452 H6            1 RES     
   17408 H6        -419.0323  -239.4099   522.7824 H6            1 RES     
   17409 H6        -420.8014  -237.8169   522.0504 H6            1 RES     
   17410 H6        -419.8484  -236.4352   522.7413 H6            1 RES     
   17411 H6        -420.4819  -237.7233   523.8240 H6            1 RES     
   17412 H6        -413.9328  -235.2591   516.7341 H6            1 RES     
   17413 H6        -415.4538  -234.4105   517.1482 H6            1 RES     
   17414 H6        -415.3675  -234.7541   514.9610 H6            1 RES     
   17415 H6        -415.6897  -236.1692   514.0860 H6            1 RES     
   17416 H6        -417.8609  -235.0109   515.9191 H6            1 RES     
   17417 H6        -418.2730  -237.2286   514.8545 H6            1 RES     
   17418 H6        -419.5051  -235.9784   514.4919 H6            1 RES     
   17419 H6        -418.6355  -235.6485   512.2002 H6            1 RES     
   17420 H6        -417.2740  -236.7399   512.5391 H6            1 RES     
   17421 H6        -418.8113  -237.9757   511.2319 H6            1 RES     
   17422 H6        -418.9030  -238.6270   512.8847 H6            1 RES     
   17423 H6        -421.0334  -237.3502   513.2756 H6            1 RES     
   17424 H6        -421.1304  -238.4982   511.9032 H6            1 RES     
   17425 H6        -420.8029  -235.4312   511.6562 H6            1 RES     
   17426 H6        -422.2842  -236.3969   511.3779 H6            1 RES     
   17427 H6        -421.1737  -237.5992   509.4758 H6            1 RES     
   17428 H6        -421.2398  -235.8142   509.2296 H6            1 RES     
   17429 H6        -419.6931  -236.5803   509.7053 H6            1 RES     
   17430 H6        -417.3252  -233.0300   514.9009 H6            1 RES     
   17431 H6        -418.7513  -233.6317   514.0033 H6            1 RES     
   17432 H6        -416.9930  -234.3520   512.1429 H6            1 RES     
   17433 H6        -415.7738  -233.5161   513.1130 H6            1 RES     
   17434 H6        -416.6295  -232.1773   511.2460 H6            1 RES     
   17435 H6        -418.3209  -232.3114   511.8436 H6            1 RES     
   17436 H6        -416.0112  -230.8915   513.3497 H6            1 RES     
   17437 H6        -417.7219  -231.0374   513.8983 H6            1 RES     
   17438 H6        -418.5132  -229.7533   511.9159 H6            1 RES     
   17439 H6        -417.3980  -228.8499   513.0028 H6            1 RES     
   17440 H6        -416.5813  -230.1649   510.3322 H6            1 RES     
   17441 H6        -415.4860  -229.2551   511.4345 H6            1 RES     
   17442 H6        -416.2433  -227.9348   509.4682 H6            1 RES     
   17443 H6        -417.9660  -228.1468   509.9432 H6            1 RES     
   17444 H6        -417.5349  -226.8194   512.0402 H6            1 RES     
   17445 H6        -417.0667  -225.9054   510.5718 H6            1 RES     
   17446 H6        -415.7871  -226.6782   511.5809 H6            1 RES     
   17447 C0        -409.0297  -240.0677   526.8796 C0            1 RES     
   17448 C0        -409.0439  -241.3253   527.7493 C0            1 RES     
   17449 C0        -410.1205  -242.1021   527.4794 C0            1 RES     
   17450 S1        -410.1511  -243.5240   528.3619 S1            1 RES     
   17451 C0        -408.6912  -243.1518   529.1571 C0            1 RES     
   17452 C0        -408.1888  -241.9351   528.6650 C0            1 RES     
   17453 C0        -410.8373  -241.5531   526.3806 C0            1 RES     
   17454 C0        -410.2160  -240.4642   525.9871 C0            1 RES     
   17455 C0        -410.7204  -239.9937   524.7105 C0            1 RES     
   17456 C0        -411.7466  -240.8108   524.2610 C0            1 RES     
   17457 S1        -412.1678  -242.1719   525.3683 S1            1 RES     
   17458 H2        -407.2218  -241.5671   528.9343 H2            1 RES     
   17459 H2        -410.2762  -239.2194   524.1090 H2            1 RES     
   17460 N3        -406.4484  -244.0935   532.0333 N3            1 RES     
   17461 C0        -407.0846  -243.3780   531.0624 C0            1 RES     
   17462 C0        -408.0141  -243.9802   530.1906 C0            1 RES     
   17463 C0        -408.2641  -245.3499   530.3764 C0            1 RES     
   17464 N3        -409.1261  -246.0842   529.6235 N3            1 RES     
   17465 S1        -408.9739  -247.5957   530.2768 S1            1 RES     
   17466 N3        -407.8658  -247.3963   531.4852 N3            1 RES     
   17467 C0        -407.5786  -246.0726   531.3893 C0            1 RES     
   17468 C0        -406.6698  -245.4241   532.2151 C0            1 RES     
   17469 H4        -406.8871  -242.3229   530.9923 H4            1 RES     
   17470 C5        -401.0422  -244.0039   531.1378 C5            1 RES     
   17471 C5        -401.9926  -243.9519   529.9406 C5            1 RES     
   17472 C5        -403.2812  -243.1537   530.2073 C5            1 RES     
   17473 C5        -403.0448  -241.6665   530.5364 C5            1 RES     
   17474 C5        -404.3866  -240.9402   530.7341 C5            1 RES     
   17475 C5        -404.2158  -239.5128   531.2731 C5            1 RES     
   17476 C5        -405.5706  -238.8179   531.5485 C5            1 RES     
   17477 C5        -406.2825  -238.2305   530.2902 C5            1 RES     
   17478 C5        -407.6832  -238.8203   529.9393 C5            1 RES     
   17479 C5        -408.7127  -238.6262   531.0906 C5            1 RES     
   17480 C5        -409.8498  -239.6640   531.0454 C5            1 RES     
   17481 C5        -410.5403  -239.8061   532.4188 C5            1 RES     
   17482 C5        -411.4695  -241.0331   532.4451 C5            1 RES     
   17483 C5        -411.9513  -241.4025   533.8596 C5            1 RES     
   17484 C5        -412.8488  -240.3489   534.4991 C5            1 RES     
   17485 C5        -408.1233  -238.2076   528.5698 C5            1 RES     
   17486 C0        -409.3029  -238.6970   527.6442 C0            1 RES     
   17487 C5        -409.5529  -237.4959   526.6324 C5            1 RES     
   17488 C5        -410.8042  -236.6141   526.9599 C5            1 RES     
   17489 C5        -412.1395  -237.1744   526.3682 C5            1 RES     
   17490 C5        -412.3195  -236.9972   524.8421 C5            1 RES     
   17491 C5        -413.5502  -237.7165   524.2608 C5            1 RES     
   17492 C5        -414.9134  -237.1020   524.6318 C5            1 RES     
   17493 C5        -415.1397  -235.6599   524.1284 C5            1 RES     
   17494 C5        -415.0572  -235.5242   522.6044 C5            1 RES     
   17495 C5        -410.5968  -235.0925   526.6581 C5            1 RES     
   17496 C5        -409.9396  -234.7088   525.3071 C5            1 RES     
   17497 C5        -409.9796  -233.1907   525.0200 C5            1 RES     
   17498 C5        -409.2602  -232.3292   526.0752 C5            1 RES     
   17499 C5        -409.3028  -230.8194   525.7641 C5            1 RES     
   17500 C5        -408.4968  -230.4292   524.5100 C5            1 RES     
   17501 C5        -408.5410  -228.9224   524.1986 C5            1 RES     
   17502 C5        -407.9006  -228.0510   525.2801 C5            1 RES     
   17503 H6        -400.6601  -242.9934   531.3873 H6            1 RES     
   17504 H6        -400.1696  -244.6439   530.8868 H6            1 RES     
   17505 H6        -401.5545  -244.4365   532.0233 H6            1 RES     
   17506 H6        -401.4587  -243.5251   529.0652 H6            1 RES     
   17507 H6        -402.2842  -244.9965   529.6923 H6            1 RES     
   17508 H6        -403.9174  -243.2256   529.2986 H6            1 RES     
   17509 H6        -403.8278  -243.6333   531.0492 H6            1 RES     
   17510 H6        -402.4743  -241.1754   529.7180 H6            1 RES     
   17511 H6        -402.4591  -241.5976   531.4772 H6            1 RES     
   17512 H6        -404.9541  -240.9364   529.7790 H6            1 RES     
   17513 H6        -404.9514  -241.4989   531.5059 H6            1 RES     
   17514 H6        -403.6872  -239.6083   532.2475 H6            1 RES     
   17515 H6        -403.5860  -238.8870   530.6049 H6            1 RES     
   17516 H6        -406.2020  -239.5141   532.1366 H6            1 RES     
   17517 H6        -405.3572  -237.9519   532.2105 H6            1 RES     
   17518 H6        -405.6043  -238.3954   529.4229 H6            1 RES     
   17519 H6        -406.3681  -237.1279   530.4021 H6            1 RES     
   17520 H6        -407.4740  -239.8642   529.8689 H6            1 RES     
   17521 H6        -408.1866  -238.8270   532.0396 H6            1 RES     
   17522 H6        -409.0841  -237.5813   531.1663 H6            1 RES     
   17523 H6        -410.5711  -239.4421   530.2307 H6            1 RES     
   17524 H6        -409.3836  -240.6512   530.8442 H6            1 RES     
   17525 H6        -411.0841  -238.8745   532.6851 H6            1 RES     
   17526 H6        -409.7514  -239.9849   533.1829 H6            1 RES     
   17527 H6        -412.3305  -240.8803   531.7605 H6            1 RES     
   17528 H6        -410.8915  -241.9132   532.0836 H6            1 RES     
   17529 H6        -411.0717  -241.5837   534.5171 H6            1 RES     
   17530 H6        -412.5260  -242.3518   533.7943 H6            1 RES     
   17531 H6        -413.7501  -240.1843   533.8725 H6            1 RES     
   17532 H6        -412.3057  -239.3916   534.6340 H6            1 RES     
   17533 H6        -413.1724  -240.7075   535.5000 H6            1 RES     
   17534 H6        -407.2394  -238.2222   527.8940 H6            1 RES     
   17535 H6        -408.3185  -237.1401   528.8264 H6            1 RES     
   17536 H6        -408.6587  -236.8384   526.6579 H6            1 RES     
   17537 H6        -409.5515  -237.7851   525.5723 H6            1 RES     
   17538 H6        -410.9355  -236.6523   528.0658 H6            1 RES     
   17539 H6        -412.2052  -238.2518   526.6338 H6            1 RES     
   17540 H6        -412.9905  -236.6567   526.8603 H6            1 RES     
   17541 H6        -412.3911  -235.9290   524.5737 H6            1 RES     
   17542 H6        -411.4357  -237.4085   524.3327 H6            1 RES     
   17543 H6        -413.4633  -237.7232   523.1540 H6            1 RES     
   17544 H6        -413.5333  -238.7763   524.5858 H6            1 RES     
   17545 H6        -415.0420  -237.1247   525.7337 H6            1 RES     
   17546 H6        -415.7059  -237.7450   524.1892 H6            1 RES     
   17547 H6        -414.4171  -234.9618   524.5982 H6            1 RES     
   17548 H6        -416.1585  -235.3464   524.4431 H6            1 RES     
   17549 H6        -415.7882  -236.2009   522.1130 H6            1 RES     
   17550 H6        -415.2920  -234.4789   522.3119 H6            1 RES     
   17551 H6        -414.0368  -235.7532   522.2345 H6            1 RES     
   17552 H6        -409.9211  -234.6946   527.4447 H6            1 RES     
   17553 H6        -411.5769  -234.5808   526.7764 H6            1 RES     
   17554 H6        -410.4367  -235.1892   524.4523 H6            1 RES     
   17555 H6        -408.8858  -235.0519   525.2905 H6            1 RES     
   17556 H6        -409.5015  -233.0414   524.0300 H6            1 RES     
   17557 H6        -411.0400  -232.8632   524.9450 H6            1 RES     
   17558 H6        -408.2031  -232.6558   526.1809 H6            1 RES     
   17559 H6        -409.7703  -232.4686   527.0511 H6            1 RES     
   17560 H6        -410.3602  -230.4923   525.6541 H6            1 RES     
   17561 H6        -408.8677  -230.2983   526.6419 H6            1 RES     
   17562 H6        -408.9167  -230.9484   523.6248 H6            1 RES     
   17563 H6        -407.4385  -230.7474   524.6332 H6            1 RES     
   17564 H6        -407.9824  -228.7524   523.2522 H6            1 RES     
   17565 H6        -409.5932  -228.6007   524.0401 H6            1 RES     
   17566 H6        -408.4565  -228.1224   526.2365 H6            1 RES     
   17567 H6        -407.9222  -226.9890   524.9555 H6            1 RES     
   17568 H6        -406.8436  -228.3504   525.4413 H6            1 RES     
   17569 C0        -402.8391  -246.9647   535.2629 C0            1 RES     
   17570 C0        -403.1478  -248.3645   535.7950 C0            1 RES     
   17571 C0        -404.4477  -248.6928   535.6009 C0            1 RES     
   17572 S1        -404.8244  -250.2420   536.1104 S1            1 RES     
   17573 C0        -403.2276  -250.5450   536.6206 C0            1 RES     
   17574 C0        -402.4241  -249.4303   536.3261 C0            1 RES     
   17575 C0        -405.0882  -247.6679   534.8512 C0            1 RES     
   17576 C0        -404.2024  -246.7323   534.5934 C0            1 RES     
   17577 C0        -404.6958  -245.7869   533.6093 C0            1 RES     
   17578 C0        -405.9873  -246.1135   533.2244 C0            1 RES     
   17579 S1        -406.6767  -247.5632   534.0489 S1            1 RES     
   17580 H2        -401.3621  -249.4447   536.4490 H2            1 RES     
   17581 H2        -404.1087  -245.0281   533.1212 H2            1 RES     
   17582 N3        -401.0446  -252.8780   538.6160 N3            1 RES     
   17583 C0        -401.5368  -251.7610   538.0081 C0            1 RES     
   17584 C0        -402.7259  -251.7949   537.2522 C0            1 RES     
   17585 C0        -403.3877  -253.0309   537.1644 C0            1 RES     
   17586 N3        -404.5411  -253.2393   536.4749 N3            1 RES     
   17587 S1        -404.8092  -254.8547   536.7056 S1            1 RES     
   17588 N3        -403.5399  -255.3377   537.6456 N3            1 RES     
   17589 C0        -402.8462  -254.1806   537.7993 C0            1 RES     
   17590 C0        -401.6673  -254.0850   538.5271 C0            1 RES     
   17591 H4        -401.0122  -250.8318   538.1437 H4            1 RES     
   17592 C5        -396.0974  -254.0543   536.5721 C5            1 RES     
   17593 C5        -397.1345  -253.3891   535.6659 C5            1 RES     
   17594 C5        -398.0343  -252.3754   536.3949 C5            1 RES     
   17595 C5        -397.2740  -251.1789   537.0003 C5            1 RES     
   17596 C5        -398.2569  -250.1956   537.6591 C5            1 RES     
   17597 C5        -397.5483  -249.0968   538.4639 C5            1 RES     
   17598 C5        -398.5428  -248.1613   539.1918 C5            1 RES     
   17599 C5        -399.1883  -247.0561   538.2992 C5            1 RES     
   17600 C5        -400.7400  -247.0986   538.1451 C5            1 RES     
   17601 C5        -401.4745  -246.9686   539.5113 C5            1 RES     
   17602 C5        -402.8859  -247.5841   539.4823 C5            1 RES     
   17603 C5        -403.3847  -247.9217   540.9038 C5            1 RES     
   17604 C5        -404.6551  -248.7896   540.8513 C5            1 RES     
   17605 C5        -405.0287  -249.4056   542.2116 C5            1 RES     
   17606 C5        -405.4267  -248.3775   543.2647 C5            1 RES     
   17607 C5        -401.1391  -246.0141   537.0919 C5            1 RES     
   17608 C0        -402.5318  -245.8588   536.3678 C0            1 RES     
   17609 C5        -402.5082  -244.3947   535.7476 C5            1 RES     
   17610 C5        -403.3368  -243.3328   536.5452 C5            1 RES     
   17611 C5        -404.8514  -243.2963   536.1554 C5            1 RES     
   17612 C5        -405.1744  -242.6372   534.7938 C5            1 RES     
   17613 C5        -406.6428  -242.7783   534.3532 C5            1 RES     
   17614 C5        -407.6584  -241.9419   535.1547 C5            1 RES     
   17615 C5        -407.4615  -240.4130   535.0664 C5            1 RES     
   17616 C5        -407.5531  -239.8662   533.6380 C5            1 RES     
   17617 C5        -402.6807  -241.9122   536.5684 C5            1 RES     
   17618 C5        -402.1297  -241.3509   535.2320 C5            1 RES     
   17619 C5        -401.7034  -239.8682   535.3240 C5            1 RES     
   17620 C5        -400.5984  -239.5919   536.3613 C5            1 RES     
   17621 C5        -400.1807  -238.1090   536.4293 C5            1 RES     
   17622 C5        -399.4752  -237.6120   535.1525 C5            1 RES     
   17623 C5        -399.0600  -236.1313   535.2199 C5            1 RES     
   17624 C5        -398.0217  -235.8315   536.3021 C5            1 RES     
   17625 H6        -395.3706  -253.3111   536.9580 H6            1 RES     
   17626 H6        -395.5310  -254.8111   535.9886 H6            1 RES     
   17627 H6        -396.5947  -254.5647   537.4241 H6            1 RES     
   17628 H6        -396.6175  -252.8930   534.8172 H6            1 RES     
   17629 H6        -397.7881  -254.1892   535.2527 H6            1 RES     
   17630 H6        -398.7791  -251.9963   535.6619 H6            1 RES     
   17631 H6        -398.5853  -252.9063   537.2023 H6            1 RES     
   17632 H6        -396.6935  -250.6510   536.2123 H6            1 RES     
   17633 H6        -396.5729  -251.5559   537.7743 H6            1 RES     
   17634 H6        -398.9190  -249.7531   536.8844 H6            1 RES     
   17635 H6        -398.8610  -250.7733   538.3859 H6            1 RES     
   17636 H6        -396.9502  -249.6179   539.2442 H6            1 RES     
   17637 H6        -396.8468  -248.5064   537.8361 H6            1 RES     
   17638 H6        -399.2804  -248.7922   539.7278 H6            1 RES     
   17639 H6        -397.9635  -247.6236   539.9722 H6            1 RES     
   17640 H6        -398.7320  -247.1437   537.2875 H6            1 RES     
   17641 H6        -398.8866  -246.0570   538.6819 H6            1 RES     
   17642 H6        -400.9011  -248.0909   537.7876 H6            1 RES     
   17643 H6        -400.9173  -247.5778   540.2435 H6            1 RES     
   17644 H6        -401.4635  -245.9313   539.9106 H6            1 RES     
   17645 H6        -403.5994  -246.9401   538.9261 H6            1 RES     
   17646 H6        -402.8069  -248.5586   538.9565 H6            1 RES     
   17647 H6        -403.5455  -246.9953   541.4958 H6            1 RES     
   17648 H6        -402.6010  -248.5306   541.4071 H6            1 RES     
   17649 H6        -405.5035  -248.2075   540.4335 H6            1 RES     
   17650 H6        -404.4586  -249.6507   540.1737 H6            1 RES     
   17651 H6        -404.1762  -250.0109   542.5931 H6            1 RES     
   17652 H6        -405.8891  -250.0926   542.0575 H6            1 RES     
   17653 H6        -406.3006  -247.7902   542.9135 H6            1 RES     
   17654 H6        -404.5833  -247.6947   543.4936 H6            1 RES     
   17655 H6        -405.7072  -248.9071   544.2006 H6            1 RES     
   17656 H6        -400.4142  -246.0783   536.2501 H6            1 RES     
   17657 H6        -400.9310  -245.0587   537.6279 H6            1 RES     
   17658 H6        -401.4522  -244.0528   535.7239 H6            1 RES     
   17659 H6        -402.7515  -244.3492   534.6770 H6            1 RES     
   17660 H6        -403.3170  -243.6544   537.6119 H6            1 RES     
   17661 H6        -405.2331  -244.3402   536.1698 H6            1 RES     
   17662 H6        -405.4044  -242.7278   536.9336 H6            1 RES     
   17663 H6        -404.9243  -241.5622   534.8056 H6            1 RES     
   17664 H6        -404.5580  -243.1125   534.0169 H6            1 RES     
   17665 H6        -406.7190  -242.4850   533.2852 H6            1 RES     
   17666 H6        -406.9331  -243.8468   534.4093 H6            1 RES     
   17667 H6        -407.6314  -242.2490   536.2207 H6            1 RES     
   17668 H6        -408.6731  -242.1773   534.7645 H6            1 RES     
   17669 H6        -406.4898  -240.1157   535.5110 H6            1 RES     
   17670 H6        -408.2636  -239.9321   535.6668 H6            1 RES     
   17671 H6        -408.5286  -240.1353   533.1797 H6            1 RES     
   17672 H6        -407.4662  -238.7593   533.6583 H6            1 RES     
   17673 H6        -406.7291  -240.2542   533.0047 H6            1 RES     
   17674 H6        -401.8080  -241.9687   537.2531 H6            1 RES     
   17675 H6        -403.4085  -241.2035   537.0206 H6            1 RES     
   17676 H6        -402.8727  -241.4001   534.4233 H6            1 RES     
   17677 H6        -401.2629  -241.9559   534.8988 H6            1 RES     
   17678 H6        -401.3467  -239.5764   534.3148 H6            1 RES     
   17679 H6        -402.5944  -239.2488   535.5684 H6            1 RES     
   17680 H6        -399.7058  -240.2185   536.1469 H6            1 RES     
   17681 H6        -400.9837  -239.8614   537.3668 H6            1 RES     
   17682 H6        -401.0740  -237.4805   536.6398 H6            1 RES     
   17683 H6        -399.4788  -238.0120   537.2833 H6            1 RES     
   17684 H6        -400.1633  -237.7094   534.2886 H6            1 RES     
   17685 H6        -398.5763  -238.2365   534.9563 H6            1 RES     
   17686 H6        -398.6151  -235.8561   534.2386 H6            1 RES     
   17687 H6        -399.9569  -235.4951   535.3821 H6            1 RES     
   17688 H6        -398.4298  -236.0203   537.3154 H6            1 RES     
   17689 H6        -397.7349  -234.7598   536.2480 H6            1 RES     
   17690 H6        -397.1124  -236.4495   536.1466 H6            1 RES     
   17691 C0        -398.1779  -257.4621   540.1873 C0            1 RES     
   17692 C0        -398.8558  -258.8104   540.4332 C0            1 RES     
   17693 C0        -400.2046  -258.6881   540.4657 C0            1 RES     
   17694 S1        -400.9988  -260.1471   540.6707 S1            1 RES     
   17695 C0        -399.5382  -261.0224   540.7229 C0            1 RES     
   17696 C0        -398.4600  -260.1434   540.5236 C0            1 RES     
   17697 C0        -400.5671  -257.3519   540.1402 C0            1 RES     
   17698 C0        -399.4664  -256.6705   539.9153 C0            1 RES     
   17699 C0        -399.7508  -255.3797   539.3164 C0            1 RES     
   17700 C0        -401.1179  -255.2025   539.1671 C0            1 RES     
   17701 S1        -402.1266  -256.5747   539.7636 S1            1 RES     
   17702 H2        -397.4569  -260.4911   540.3973 H2            1 RES     
   17703 H2        -399.0198  -254.7084   538.8997 H2            1 RES     
   17704 N3        -397.9965  -264.3524   541.5737 N3            1 RES     
   17705 C0        -398.1701  -263.0152   541.3704 C0            1 RES     
   17706 C0        -399.3966  -262.4907   540.9153 C0            1 RES     
   17707 C0        -400.4365  -263.4085   540.6927 C0            1 RES     
   17708 N3        -401.6782  -263.0728   540.2517 N3            1 RES     
   17709 S1        -402.4321  -264.5414   540.1530 S1            1 RES     
   17710 N3        -401.2766  -265.6148   540.6433 N3            1 RES     
   17711 C0        -400.2238  -264.7973   540.9027 C0            1 RES     
   17712 C0        -398.9904  -265.2544   541.3479 C0            1 RES     
   17713 H4        -397.3532  -262.3532   541.5975 H4            1 RES     
   17714 C5        -394.0585  -266.2205   538.2512 C5            1 RES     
   17715 C5        -394.9322  -265.0557   537.7830 C5            1 RES     
   17716 C5        -395.3329  -264.0895   538.9120 C5            1 RES     
   17717 C5        -394.1417  -263.3869   539.5928 C5            1 RES     
   17718 C5        -394.6398  -262.4047   540.6670 C5            1 RES     
   17719 C5        -393.5013  -261.8352   541.5252 C5            1 RES     
   17720 C5        -394.0165  -260.9136   542.6563 C5            1 RES     
   17721 C5        -394.3770  -259.4607   542.2155 C5            1 RES     
   17722 C5        -395.8601  -259.0182   542.4094 C5            1 RES     
   17723 C5        -396.3106  -259.0926   543.8975 C5            1 RES     
   17724 C5        -397.8356  -259.2498   544.0443 C5            1 RES     
   17725 C5        -398.2136  -259.8340   545.4223 C5            1 RES     
   17726 C5        -399.6940  -260.2547   545.4562 C5            1 RES     
   17727 C5        -400.0563  -261.1107   546.6831 C5            1 RES     
   17728 C5        -399.9387  -260.3673   548.0091 C5            1 RES     
   17729 C5        -396.0202  -257.6066   541.7564 C5            1 RES     
   17730 C0        -397.3693  -256.8612   541.4214 C0            1 RES     
   17731 C5        -396.9483  -255.3482   541.1714 C5            1 RES     
   17732 C5        -397.2570  -254.3781   542.3605 C5            1 RES     
   17733 C5        -398.7124  -253.8047   542.3416 C5            1 RES     
   17734 C5        -398.9858  -252.7130   541.2804 C5            1 RES     
   17735 C5        -400.4642  -252.3002   541.1614 C5            1 RES     
   17736 C5        -401.0216  -251.4848   542.3437 C5            1 RES     
   17737 C5        -400.3429  -250.1170   542.5728 C5            1 RES     
   17738 C5        -400.4471  -249.1735   541.3700 C5            1 RES     
   17739 C5        -396.1702  -253.2710   542.5665 C5            1 RES     
   17740 C5        -395.6573  -252.5219   541.3094 C5            1 RES     
   17741 C5        -394.7546  -251.3135   541.6467 C5            1 RES     
   17742 C5        -393.4867  -251.6753   542.4434 C5            1 RES     
   17743 C5        -392.5953  -250.4574   542.7600 C5            1 RES     
   17744 C5        -391.9513  -249.8279   541.5094 C5            1 RES     
   17745 C5        -391.0630  -248.6111   541.8254 C5            1 RES     
   17746 C5        -389.8432  -248.9457   542.6852 C5            1 RES     
   17747 H6        -393.0797  -265.8586   538.6261 H6            1 RES     
   17748 H6        -393.8631  -266.9007   537.3949 H6            1 RES     
   17749 H6        -394.5724  -266.7964   539.0499 H6            1 RES     
   17750 H6        -394.4043  -264.4993   536.9797 H6            1 RES     
   17751 H6        -395.8654  -265.4822   537.3525 H6            1 RES     
   17752 H6        -396.0046  -263.3191   538.4749 H6            1 RES     
   17753 H6        -395.9099  -264.6561   539.6759 H6            1 RES     
   17754 H6        -393.5355  -262.8372   538.8400 H6            1 RES     
   17755 H6        -393.5043  -264.1552   540.0789 H6            1 RES     
   17756 H6        -395.2192  -261.5874   540.1868 H6            1 RES     
   17757 H6        -395.2932  -262.9755   541.3556 H6            1 RES     
   17758 H6        -393.0069  -262.7080   542.0069 H6            1 RES     
   17759 H6        -392.7389  -261.3092   540.9113 H6            1 RES     
   17760 H6        -394.8387  -261.4396   543.1821 H6            1 RES     
   17761 H6        -393.1882  -260.8134   543.3896 H6            1 RES     
   17762 H6        -394.1222  -259.3731   541.1354 H6            1 RES     
   17763 H6        -393.7102  -258.7445   542.7429 H6            1 RES     
   17764 H6        -396.3899  -259.7752   541.8758 H6            1 RES     
   17765 H6        -395.8904  -260.0203   544.3223 H6            1 RES     
   17766 H6        -395.9001  -258.2645   544.5149 H6            1 RES     
   17767 H6        -398.3654  -258.2978   543.8292 H6            1 RES     
   17768 H6        -398.1591  -260.0088   543.3014 H6            1 RES     
   17769 H6        -397.9731  -259.1154   546.2348 H6            1 RES     
   17770 H6        -397.6141  -260.7582   545.5797 H6            1 RES     
   17771 H6        -400.3509  -259.3618   545.3880 H6            1 RES     
   17772 H6        -399.8916  -260.8986   544.5699 H6            1 RES     
   17773 H6        -399.4085  -262.0153   546.7106 H6            1 RES     
   17774 H6        -401.1085  -261.4515   546.5708 H6            1 RES     
   17775 H6        -400.6083  -259.4820   548.0109 H6            1 RES     
   17776 H6        -398.8933  -260.0474   548.1950 H6            1 RES     
   17777 H6        -400.2449  -261.0464   548.8338 H6            1 RES     
   17778 H6        -395.4833  -257.6228   540.7818 H6            1 RES     
   17779 H6        -395.4337  -256.9488   542.4396 H6            1 RES     
   17780 H6        -395.8530  -255.3256   540.9909 H6            1 RES     
   17781 H6        -397.3103  -254.9249   540.2242 H6            1 RES     
   17782 H6        -397.1957  -254.9898   543.2899 H6            1 RES     
   17783 H6        -399.4129  -254.6557   542.1973 H6            1 RES     
   17784 H6        -398.9304  -253.3573   543.3349 H6            1 RES     
   17785 H6        -398.3941  -251.8043   541.4862 H6            1 RES     
   17786 H6        -398.6775  -253.0934   540.2955 H6            1 RES     
   17787 H6        -400.5877  -251.6981   540.2368 H6            1 RES     
   17788 H6        -401.0818  -253.2115   541.0303 H6            1 RES     
   17789 H6        -400.9489  -252.0850   543.2742 H6            1 RES     
   17790 H6        -402.1010  -251.3004   542.1481 H6            1 RES     
   17791 H6        -399.2754  -250.2486   542.8439 H6            1 RES     
   17792 H6        -400.8473  -249.6275   543.4337 H6            1 RES     
   17793 H6        -401.5107  -249.0110   541.0935 H6            1 RES     
   17794 H6        -399.9959  -248.1921   541.6282 H6            1 RES     
   17795 H6        -399.8961  -249.5744   540.4948 H6            1 RES     
   17796 H6        -395.2789  -253.7684   543.0043 H6            1 RES     
   17797 H6        -396.5505  -252.5510   543.3236 H6            1 RES     
   17798 H6        -396.4800  -252.1212   540.7003 H6            1 RES     
   17799 H6        -395.0962  -253.2211   540.6576 H6            1 RES     
   17800 H6        -394.4665  -250.8519   540.6798 H6            1 RES     
   17801 H6        -395.3459  -250.5684   542.2232 H6            1 RES     
   17802 H6        -392.8921  -252.4363   541.8932 H6            1 RES     
   17803 H6        -393.7946  -252.1075   543.4183 H6            1 RES     
   17804 H6        -393.1905  -249.6934   543.3070 H6            1 RES     
   17805 H6        -391.7886  -250.8160   543.4323 H6            1 RES     
   17806 H6        -392.7466  -249.4706   540.8245 H6            1 RES     
   17807 H6        -391.3475  -250.5940   540.9755 H6            1 RES     
   17808 H6        -390.6943  -248.1975   540.8613 H6            1 RES     
   17809 H6        -391.6658  -247.8248   542.3295 H6            1 RES     
   17810 H6        -390.1446  -249.3000   543.6915 H6            1 RES     
   17811 H6        -389.2276  -248.0311   542.8198 H6            1 RES     
   17812 H6        -389.2220  -249.7207   542.1889 H6            1 RES     
   17813 C0        -396.6234  -269.8079   541.3435 C0            1 RES     
   17814 C0        -397.6688  -270.9215   541.4139 C0            1 RES     
   17815 C0        -398.8818  -270.4399   541.7771 C0            1 RES     
   17816 S1        -400.0782  -271.6101   541.8091 S1            1 RES     
   17817 C0        -398.9989  -272.8360   541.3250 C0            1 RES     
   17818 C0        -397.7293  -272.2775   541.0990 C0            1 RES     
   17819 C0        -398.8222  -269.0216   541.8629 C0            1 RES     
   17820 C0        -397.6007  -268.6425   541.5614 C0            1 RES     
   17821 C0        -397.5216  -267.2076   541.3605 C0            1 RES     
   17822 C0        -398.7591  -266.6175   541.5685 C0            1 RES     
   17823 S1        -400.0718  -267.7626   542.0395 S1            1 RES     
   17824 H2        -396.9267  -272.8404   540.6723 H2            1 RES     
   17825 H2        -396.6753  -266.6777   540.9584 H2            1 RES     
   17826 N3        -398.5466  -276.5620   541.0048 N3            1 RES     
   17827 C0        -398.2933  -275.2316   541.1639 C0            1 RES     
   17828 C0        -399.3271  -274.2741   541.1322 C0            1 RES     
   17829 C0        -400.6330  -274.7554   540.9415 C0            1 RES     
   17830 N3        -401.7418  -273.9704   540.8825 N3            1 RES     
   17831 S1        -402.9463  -275.0717   540.6160 S1            1 RES     
   17832 N3        -402.1559  -276.5211   540.5689 N3            1 RES     
   17833 C0        -400.8661  -276.1459   540.7680 C0            1 RES     
   17834 C0        -399.8049  -277.0409   540.8045 C0            1 RES     
   17835 H4        -397.2797  -274.9226   541.3493 H4            1 RES     
   17836 C5        -395.9590  -278.4044   536.5387 C5            1 RES     
   17837 C5        -396.4531  -276.9572   536.5647 C5            1 RES     
   17838 C5        -396.3479  -276.2918   537.9485 C5            1 RES     
   17839 C5        -394.9081  -276.1839   538.4882 C5            1 RES     
   17840 C5        -394.8962  -275.4605   539.8459 C5            1 RES     
   17841 C5        -393.5248  -275.5113   540.5343 C5            1 RES     
   17842 C5        -393.5409  -274.8551   541.9354 C5            1 RES     
   17843 C5        -393.4567  -273.2969   541.9390 C5            1 RES     
   17844 C5        -394.6662  -272.5321   542.5598 C5            1 RES     
   17845 C5        -394.9025  -272.9089   544.0515 C5            1 RES     
   17846 C5        -396.3567  -272.6667   544.4972 C5            1 RES     
   17847 C5        -396.7100  -273.4976   545.7494 C5            1 RES     
   17848 C5        -398.2259  -273.4757   546.0166 C5            1 RES     
   17849 C5        -398.6759  -274.5152   547.0589 C5            1 RES     
   17850 C5        -398.1335  -274.2569   548.4602 C5            1 RES     
   17851 C5        -394.4386  -271.0059   542.3079 C5            1 RES     
   17852 C0        -395.4966  -269.8472   542.4690 C0            1 RES     
   17853 C5        -394.6368  -268.5096   542.4911 C5            1 RES     
   17854 C5        -394.4361  -267.8842   543.9120 C5            1 RES     
   17855 C5        -395.6060  -266.9454   544.3558 C5            1 RES     
   17856 C5        -395.6476  -265.5602   543.6686 C5            1 RES     
   17857 C5        -396.9063  -264.7324   543.9855 C5            1 RES     
   17858 C5        -396.9899  -264.1763   545.4198 C5            1 RES     
   17859 C5        -395.8707  -263.1842   545.8031 C5            1 RES     
   17860 C5        -395.8234  -261.9406   544.9093 C5            1 RES     
   17861 C5        -393.0259  -267.2382   544.1205 C5            1 RES     
   17862 C5        -392.4751  -266.3300   542.9909 C5            1 RES     
   17863 C5        -391.1847  -265.5781   543.3888 C5            1 RES     
   17864 C5        -390.0103  -266.4984   543.7723 C5            1 RES     
   17865 C5        -388.7302  -265.7286   544.1554 C5            1 RES     
   17866 C5        -388.0958  -264.9685   542.9744 C5            1 RES     
   17867 C5        -386.8191  -264.1986   543.3574 C5            1 RES     
   17868 C5        -385.6717  -265.0990   543.8178 C5            1 RES     
   17869 H6        -394.8733  -278.4586   536.7573 H6            1 RES     
   17870 H6        -396.1226  -278.8304   535.5259 H6            1 RES     
   17871 H6        -396.5176  -279.0200   537.2754 H6            1 RES     
   17872 H6        -395.8886  -276.3620   535.8158 H6            1 RES     
   17873 H6        -397.5255  -276.9586   536.2681 H6            1 RES     
   17874 H6        -396.7801  -275.2709   537.8663 H6            1 RES     
   17875 H6        -396.9672  -276.8709   538.6687 H6            1 RES     
   17876 H6        -394.2657  -275.6316   537.7680 H6            1 RES     
   17877 H6        -394.5003  -277.2075   538.6250 H6            1 RES     
   17878 H6        -395.2327  -274.4100   539.7131 H6            1 RES     
   17879 H6        -395.5985  -275.9999   540.5112 H6            1 RES     
   17880 H6        -393.2857  -276.5889   540.6747 H6            1 RES     
   17881 H6        -392.7251  -275.0652   539.9046 H6            1 RES     
   17882 H6        -394.4088  -275.2585   542.4951 H6            1 RES     
   17883 H6        -392.6321  -275.2110   542.4658 H6            1 RES     
   17884 H6        -393.3414  -272.9723   540.8804 H6            1 RES     
   17885 H6        -392.5231  -272.9841   542.4549 H6            1 RES     
   17886 H6        -395.4865  -272.9188   541.9976 H6            1 RES     
   17887 H6        -394.7588  -273.9993   544.1420 H6            1 RES     
   17888 H6        -394.1581  -272.4482   544.7365 H6            1 RES     
   17889 H6        -396.5650  -271.5847   544.6354 H6            1 RES     
   17890 H6        -397.0144  -273.0521   543.6901 H6            1 RES     
   17891 H6        -396.1332  -273.1462   546.6316 H6            1 RES     
   17892 H6        -396.4354  -274.5569   545.5473 H6            1 RES     
   17893 H6        -398.5518  -272.4550   546.3087 H6            1 RES     
   17894 H6        -398.7481  -273.7493   545.0724 H6            1 RES     
   17895 H6        -398.3679  -275.5322   546.7276 H6            1 RES     
   17896 H6        -399.7863  -274.4979   547.1101 H6            1 RES     
   17897 H6        -398.4640  -273.2600   548.8195 H6            1 RES     
   17898 H6        -397.0261  -274.3129   548.4753 H6            1 RES     
   17899 H6        -398.5289  -275.0327   549.1507 H6            1 RES     
   17900 H6        -394.0797  -270.8864   541.2613 H6            1 RES     
   17901 H6        -393.5774  -270.7695   542.9757 H6            1 RES     
   17902 H6        -393.6329  -268.7442   542.0789 H6            1 RES     
   17903 H6        -394.9668  -267.7438   541.7756 H6            1 RES     
   17904 H6        -394.4515  -268.7325   544.6344 H6            1 RES     
   17905 H6        -396.5621  -267.4839   544.1784 H6            1 RES     
   17906 H6        -395.5217  -266.7659   545.4490 H6            1 RES     
   17907 H6        -394.7651  -264.9563   543.9422 H6            1 RES     
   17908 H6        -395.6243  -265.7064   542.5788 H6            1 RES     
   17909 H6        -396.9514  -263.8768   543.2794 H6            1 RES     
   17910 H6        -397.8033  -265.3533   543.7878 H6            1 RES     
   17911 H6        -396.9909  -265.0176   546.1434 H6            1 RES     
   17912 H6        -397.9631  -263.6471   545.5211 H6            1 RES     
   17913 H6        -394.8806  -263.6839   545.7884 H6            1 RES     
   17914 H6        -396.0581  -262.8469   546.8454 H6            1 RES     
   17915 H6        -396.8004  -261.4121   544.9252 H6            1 RES     
   17916 H6        -395.0405  -261.2461   545.2810 H6            1 RES     
   17917 H6        -395.5651  -262.2058   543.8636 H6            1 RES     
   17918 H6        -392.2982  -268.0716   544.2178 H6            1 RES     
   17919 H6        -393.0356  -266.6948   545.0905 H6            1 RES     
   17920 H6        -393.1950  -265.5542   542.6936 H6            1 RES     
   17921 H6        -392.2751  -266.9361   542.0847 H6            1 RES     
   17922 H6        -390.8983  -264.9543   542.5172 H6            1 RES     
   17923 H6        -391.4082  -264.8995   544.2414 H6            1 RES     
   17924 H6        -389.7854  -267.2001   542.9402 H6            1 RES     
   17925 H6        -390.3043  -267.0922   544.6629 H6            1 RES     
   17926 H6        -388.9551  -265.0231   544.9854 H6            1 RES     
   17927 H6        -388.0025  -266.4799   544.5258 H6            1 RES     
   17928 H6        -388.8152  -264.2179   542.5892 H6            1 RES     
   17929 H6        -387.8617  -265.6822   542.1545 H6            1 RES     
   17930 H6        -386.4730  -263.6421   542.4591 H6            1 RES     
   17931 H6        -387.0497  -263.4580   544.1536 H6            1 RES     
   17932 H6        -385.9293  -265.6326   544.7547 H6            1 RES     
   17933 H6        -384.7750  -264.4756   544.0200 H6            1 RES     
   17934 H6        -385.4190  -265.8368   543.0274 H6            1 RES     
   17935 C0        -399.1088  -281.8668   539.2036 C0            1 RES     
   17936 C0        -400.4437  -282.6112   539.2456 C0            1 RES     
   17937 C0        -401.3645  -281.9362   539.9749 C0            1 RES     
   17938 S1        -402.8644  -282.6787   540.0014 S1            1 RES     
   17939 C0        -402.3323  -283.9609   539.0140 C0            1 RES     
   17940 C0        -400.9943  -283.7414   538.6447 C0            1 RES     
   17941 C0        -400.8261  -280.6819   540.3739 C0            1 RES     
   17942 C0        -399.6031  -280.5906   539.9020 C0            1 RES     
   17943 C0        -399.0812  -279.2426   540.0293 C0            1 RES     
   17944 C0        -400.0105  -278.4162   540.6427 C0            1 RES     
   17945 S1        -401.5491  -279.2315   541.1164 S1            1 RES     
   17946 H2        -400.4923  -284.3566   537.9288 H2            1 RES     
   17947 H2        -398.1723  -278.8786   539.5821 H2            1 RES     
   17948 N3        -403.1920  -287.3997   537.7390 N3            1 RES     
   17949 C0        -402.4918  -286.3016   538.1432 C0            1 RES     
   17950 C0        -403.1428  -285.1265   538.5698 C0            1 RES     
   17951 C0        -404.5475  -285.1434   538.5711 C0            1 RES     
   17952 N3        -405.3295  -284.0969   538.9484 N3            1 RES     
   17953 S1        -406.8560  -284.6867   538.7105 S1            1 RES     
   17954 N3        -406.6064  -286.2199   538.1493 N3            1 RES     
   17955 C0        -405.2508  -286.2979   538.1347 C0            1 RES     
   17956 C0        -404.5527  -287.4250   537.7212 C0            1 RES     
   17957 H4        -401.4178  -286.3585   538.1624 H4            1 RES     
   17958 C5        -402.0158  -288.5043   532.5014 C5            1 RES     
   17959 C5        -401.9928  -287.0503   532.9753 C5            1 RES     
   17960 C5        -401.4798  -286.8767   534.4159 C5            1 RES     
   17961 C5        -400.0251  -287.3409   534.6273 C5            1 RES     
   17962 C5        -399.5836  -287.0804   536.0778 C5            1 RES     
   17963 C5        -398.2246  -287.7138   536.4081 C5            1 RES     
   17964 C5        -397.8254  -287.5196   537.8904 C5            1 RES     
   17965 C5        -397.2293  -286.1202   538.2387 C5            1 RES     
   17966 C5        -398.0166  -285.2628   539.2770 C5            1 RES     
   17967 C5        -398.1529  -285.9773   540.6532 C5            1 RES     
   17968 C5        -399.3666  -285.4774   541.4589 C5            1 RES     
   17969 C5        -399.7964  -286.5039   542.5289 C5            1 RES     
   17970 C5        -401.1657  -286.1358   543.1282 C5            1 RES     
   17971 C5        -401.7844  -287.2643   543.9727 C5            1 RES     
   17972 C5        -400.9962  -287.5908   545.2363 C5            1 RES     
   17973 C5        -397.3331  -283.8582   539.3439 C5            1 RES     
   17974 C0        -397.9129  -282.5489   540.0052 C0            1 RES     
   17975 C5        -396.6638  -281.5746   540.1448 C5            1 RES     
   17976 C5        -396.0697  -281.4753   541.5897 C5            1 RES     
   17977 C5        -396.7873  -280.4181   542.4923 C5            1 RES     
   17978 C5        -396.4627  -278.9394   542.1751 C5            1 RES     
   17979 C5        -397.3177  -277.9216   542.9518 C5            1 RES     
   17980 C5        -397.0100  -277.8096   544.4572 C5            1 RES     
   17981 C5        -395.5829  -277.3297   544.7993 C5            1 RES     
   17982 C5        -395.2514  -275.9448   544.2336 C5            1 RES     
   17983 C5        -394.5106  -281.3425   541.6201 C5            1 RES     
   17984 C5        -393.8537  -280.3367   540.6397 C5            1 RES     
   17985 C5        -392.3447  -280.1288   540.9009 C5            1 RES     
   17986 C5        -391.5009  -281.4124   540.7842 C5            1 RES     
   17987 C5        -389.9975  -281.1808   541.0380 C5            1 RES     
   17988 C5        -389.3190  -280.3190   539.9556 C5            1 RES     
   17989 C5        -387.8188  -280.0864   540.2101 C5            1 RES     
   17990 C5        -386.9828  -281.3667   540.1768 C5            1 RES     
   17991 H6        -400.9904  -288.9231   532.4510 H6            1 RES     
   17992 H6        -402.4518  -288.5513   531.4807 H6            1 RES     
   17993 H6        -402.6379  -289.1254   533.1803 H6            1 RES     
   17994 H6        -401.3737  -286.4459   532.2788 H6            1 RES     
   17995 H6        -403.0352  -286.6633   532.9360 H6            1 RES     
   17996 H6        -401.5556  -285.7981   534.6740 H6            1 RES     
   17997 H6        -402.1487  -287.4426   535.1014 H6            1 RES     
   17998 H6        -399.3436  -286.8060   533.9303 H6            1 RES     
   17999 H6        -399.9653  -288.4311   534.4258 H6            1 RES     
   18000 H6        -399.5675  -285.9868   536.2733 H6            1 RES     
   18001 H6        -400.3245  -287.5705   536.7393 H6            1 RES     
   18002 H6        -398.3396  -288.8070   536.2354 H6            1 RES     
   18003 H6        -397.4189  -287.3468   535.7366 H6            1 RES     
   18004 H6        -398.6904  -287.8081   538.5211 H6            1 RES     
   18005 H6        -397.0215  -288.2556   538.1042 H6            1 RES     
   18006 H6        -397.1624  -285.5462   537.2872 H6            1 RES     
   18007 H6        -396.1822  -286.2478   538.5894 H6            1 RES     
   18008 H6        -398.9890  -285.2211   538.8397 H6            1 RES     
   18009 H6        -398.3682  -287.0407   540.4518 H6            1 RES     
   18010 H6        -397.2097  -285.9660   541.2410 H6            1 RES     
   18011 H6        -399.1825  -284.4704   541.8893 H6            1 RES     
   18012 H6        -400.2213  -285.4085   540.7537 H6            1 RES     
   18013 H6        -399.0181  -286.6031   543.3155 H6            1 RES     
   18014 H6        -399.9201  -287.4901   542.0285 H6            1 RES     
   18015 H6        -401.0900  -285.1968   543.7163 H6            1 RES     
   18016 H6        -401.8761  -285.9627   542.2889 H6            1 RES     
   18017 H6        -401.8811  -288.1834   543.3525 H6            1 RES     
   18018 H6        -402.8073  -286.9513   544.2753 H6            1 RES     
   18019 H6        -400.9233  -286.6920   545.8835 H6            1 RES     
   18020 H6        -399.9796  -287.9578   544.9881 H6            1 RES     
   18021 H6        -401.5258  -288.3908   545.7973 H6            1 RES     
   18022 H6        -397.1054  -283.5437   538.3010 H6            1 RES     
   18023 H6        -396.3577  -284.0798   539.8367 H6            1 RES     
   18024 H6        -395.8630  -281.9507   539.4740 H6            1 RES     
   18025 H6        -396.8177  -280.5726   539.7212 H6            1 RES     
   18026 H6        -396.2644  -282.4576   542.0784 H6            1 RES     
   18027 H6        -397.8828  -280.5896   542.4141 H6            1 RES     
   18028 H6        -396.4958  -280.5977   543.5493 H6            1 RES     
   18029 H6        -395.4007  -278.7157   542.3762 H6            1 RES     
   18030 H6        -396.6423  -278.7606   541.1049 H6            1 RES     
   18031 H6        -397.1748  -276.9203   542.4938 H6            1 RES     
   18032 H6        -398.3882  -278.1790   542.8218 H6            1 RES     
   18033 H6        -397.1887  -278.7900   544.9454 H6            1 RES     
   18034 H6        -397.7279  -277.0819   544.8958 H6            1 RES     
   18035 H6        -394.8273  -278.0606   544.4456 H6            1 RES     
   18036 H6        -395.4997  -277.2738   545.9062 H6            1 RES     
   18037 H6        -395.9851  -275.1918   544.5922 H6            1 RES     
   18038 H6        -394.2385  -275.6391   544.5711 H6            1 RES     
   18039 H6        -395.2451  -275.9539   543.1244 H6            1 RES     
   18040 H6        -394.0947  -282.3372   541.3535 H6            1 RES     
   18041 H6        -394.2033  -281.1269   542.6668 H6            1 RES     
   18042 H6        -394.3095  -279.3382   540.7018 H6            1 RES     
   18043 H6        -393.9955  -280.6817   539.5959 H6            1 RES     
   18044 H6        -391.9927  -279.3841   540.1577 H6            1 RES     
   18045 H6        -392.2084  -279.6953   541.9162 H6            1 RES     
   18046 H6        -391.6406  -281.8734   539.7826 H6            1 RES     
   18047 H6        -391.8473  -282.1330   541.5542 H6            1 RES     
   18048 H6        -389.8568  -280.7157   542.0385 H6            1 RES     
   18049 H6        -389.5161  -282.1806   541.0490 H6            1 RES     
   18050 H6        -389.7950  -279.3179   539.9286 H6            1 RES     
   18051 H6        -389.4525  -280.7971   538.9606 H6            1 RES     
   18052 H6        -387.4373  -279.4123   539.4123 H6            1 RES     
   18053 H6        -387.6765  -279.5777   541.1881 H6            1 RES     
   18054 H6        -387.2689  -282.0561   540.9964 H6            1 RES     
   18055 H6        -385.9111  -281.1083   540.3116 H6            1 RES     
   18056 H6        -387.1028  -281.8808   539.1999 H6            1 RES     
   18057 C0        -405.7296  -291.5629   534.9230 C0            1 RES     
   18058 C0        -407.2160  -291.8801   535.0896 C0            1 RES     
   18059 C0        -407.7487  -291.2177   536.1444 C0            1 RES     
   18060 S1        -409.3906  -291.4823   536.3340 S1            1 RES     
   18061 C0        -409.4583  -292.5149   534.9808 C0            1 RES     
   18062 C0        -408.1890  -292.5824   534.3813 C0            1 RES     
   18063 C0        -406.7742  -290.3395   536.6936 C0            1 RES     
   18064 C0        -405.6692  -290.4619   535.9931 C0            1 RES     
   18065 C0        -404.7171  -289.4139   536.3107 C0            1 RES     
   18066 C0        -405.2237  -288.5768   537.2933 C0            1 RES     
   18067 S1        -406.8631  -289.0279   537.8975 S1            1 RES     
   18068 H2        -408.0253  -293.0764   533.4474 H2            1 RES     
   18069 H2        -403.8111  -289.2059   535.7680 H2            1 RES     
   18070 N3        -411.5802  -295.0429   533.1653 N3            1 RES     
   18071 C0        -410.5060  -294.3545   533.6463 C0            1 RES     
   18072 C0        -410.6635  -293.2223   534.4709 C0            1 RES     
   18073 C0        -411.9792  -292.8431   534.7847 C0            1 RES     
   18074 N3        -412.3085  -291.7771   535.5621 N3            1 RES     
   18075 S1        -413.9616  -291.8173   535.5432 S1            1 RES     
   18076 N3        -414.3162  -293.1246   534.5980 N3            1 RES     
   18077 C0        -413.0796  -293.5728   534.2606 C0            1 RES     
   18078 C0        -412.8605  -294.6781   533.4490 C0            1 RES     
   18079 H4        -409.5203  -294.7141   533.4093 H4            1 RES     
   18080 C5        -411.5841  -294.8505   527.6881 C5            1 RES     
   18081 C5        -411.0135  -293.6667   528.4708 C5            1 RES     
   18082 C5        -410.2754  -294.0739   529.7584 C5            1 RES     
   18083 C5        -409.0429  -294.9690   529.5223 C5            1 RES     
   18084 C5        -408.3411  -295.2796   530.8557 C5            1 RES     
   18085 C5        -407.2374  -296.3373   530.7140 C5            1 RES     
   18086 C5        -406.5927  -296.7058   532.0715 C5            1 RES     
   18087 C5        -405.5233  -295.6964   532.5935 C5            1 RES     
   18088 C5        -405.8276  -294.9952   533.9533 C5            1 RES     
   18089 C5        -405.9990  -296.0126   535.1188 C5            1 RES     
   18090 C5        -406.8523  -295.4503   536.2710 C5            1 RES     
   18091 C5        -407.4439  -296.5806   537.1402 C5            1 RES     
   18092 C5        -408.5150  -296.0346   538.1016 C5            1 RES     
   18093 C5        -409.3483  -297.1392   538.7762 C5            1 RES     
   18094 C5        -408.5442  -298.0289   539.7177 C5            1 RES     
   18095 C5        -404.7144  -293.9233   534.1906 C5            1 RES     
   18096 C0        -404.7280  -292.7571   535.2526 C0            1 RES     
   18097 C5        -403.2199  -292.2588   535.3308 C5            1 RES     
   18098 C5        -402.4301  -292.7578   536.5868 C5            1 RES     
   18099 C5        -402.6221  -291.8540   537.8492 C5            1 RES     
   18100 C5        -401.8730  -290.5010   537.8214 C5            1 RES     
   18101 C5        -402.2239  -289.5576   538.9863 C5            1 RES     
   18102 C5        -401.6886  -289.9823   540.3671 C5            1 RES     
   18103 C5        -400.1501  -290.0451   540.4813 C5            1 RES     
   18104 C5        -399.4605  -288.7071   540.1950 C5            1 RES     
   18105 C5        -400.9274  -293.0838   536.2954 C5            1 RES     
   18106 C5        -400.1183  -292.0623   535.4549 C5            1 RES     
   18107 C5        -398.6050  -292.3732   535.4107 C5            1 RES     
   18108 C5        -398.2602  -293.7494   534.8104 C5            1 RES     
   18109 C5        -396.7454  -294.0348   534.7659 C5            1 RES     
   18110 C5        -395.9782  -293.1211   533.7905 C5            1 RES     
   18111 C5        -394.4658  -293.4049   533.7476 C5            1 RES     
   18112 C5        -394.1156  -294.8003   533.2288 C5            1 RES     
   18113 H6        -410.7735  -295.5068   527.3116 H6            1 RES     
   18114 H6        -412.1494  -294.4722   526.8099 H6            1 RES     
   18115 H6        -412.2753  -295.4419   528.3253 H6            1 RES     
   18116 H6        -410.3331  -293.0847   527.8136 H6            1 RES     
   18117 H6        -411.8630  -293.0084   528.7588 H6            1 RES     
   18118 H6        -409.9520  -293.1423   530.2715 H6            1 RES     
   18119 H6        -410.9911  -294.6036   530.4253 H6            1 RES     
   18120 H6        -408.3273  -294.4679   528.8344 H6            1 RES     
   18121 H6        -409.3772  -295.9233   529.0636 H6            1 RES     
   18122 H6        -407.9357  -294.3418   531.2923 H6            1 RES     
   18123 H6        -409.1023  -295.7128   531.5338 H6            1 RES     
   18124 H6        -407.7317  -297.2536   530.3212 H6            1 RES     
   18125 H6        -406.4581  -296.0319   529.9831 H6            1 RES     
   18126 H6        -407.4069  -296.9108   532.7956 H6            1 RES     
   18127 H6        -406.0570  -297.6672   531.9208 H6            1 RES     
   18128 H6        -405.4038  -294.9121   531.8125 H6            1 RES     
   18129 H6        -404.5397  -296.2101   532.6596 H6            1 RES     
   18130 H6        -406.7821  -294.5557   533.7684 H6            1 RES     
   18131 H6        -406.5809  -296.8650   534.7284 H6            1 RES     
   18132 H6        -405.0329  -296.4395   535.4650 H6            1 RES     
   18133 H6        -406.2859  -294.7076   536.8719 H6            1 RES     
   18134 H6        -407.7255  -294.9406   535.8127 H6            1 RES     
   18135 H6        -406.6404  -297.1204   537.6858 H6            1 RES     
   18136 H6        -407.9567  -297.3008   536.4644 H6            1 RES     
   18137 H6        -408.0503  -295.3697   538.8601 H6            1 RES     
   18138 H6        -409.2379  -295.4310   537.5081 H6            1 RES     
   18139 H6        -409.8305  -297.7705   537.9967 H6            1 RES     
   18140 H6        -410.1562  -296.6540   539.3659 H6            1 RES     
   18141 H6        -408.0871  -297.4173   540.5233 H6            1 RES     
   18142 H6        -407.7525  -298.5776   539.1681 H6            1 RES     
   18143 H6        -409.2250  -298.7753   540.1807 H6            1 RES     
   18144 H6        -404.5439  -293.3947   533.2263 H6            1 RES     
   18145 H6        -403.8089  -294.5443   534.3853 H6            1 RES     
   18146 H6        -402.6917  -292.6314   534.4280 H6            1 RES     
   18147 H6        -403.0903  -291.1757   535.1988 H6            1 RES     
   18148 H6        -402.8693  -293.7439   536.8635 H6            1 RES     
   18149 H6        -403.7119  -291.6798   537.9819 H6            1 RES     
   18150 H6        -402.2616  -292.4094   538.7413 H6            1 RES     
   18151 H6        -400.7799  -290.6540   537.8246 H6            1 RES     
   18152 H6        -402.1312  -289.9739   536.8912 H6            1 RES     
   18153 H6        -401.8224  -288.5487   538.7548 H6            1 RES     
   18154 H6        -403.3261  -289.4538   539.0445 H6            1 RES     
   18155 H6        -402.1122  -290.9710   540.6401 H6            1 RES     
   18156 H6        -402.0553  -289.2437   541.1137 H6            1 RES     
   18157 H6        -399.7374  -290.8221   539.8059 H6            1 RES     
   18158 H6        -399.8987  -290.3414   541.5226 H6            1 RES     
   18159 H6        -399.8448  -287.9175   540.8754 H6            1 RES     
   18160 H6        -398.3669  -288.8113   540.3575 H6            1 RES     
   18161 H6        -399.6132  -288.3926   539.1423 H6            1 RES     
   18162 H6        -400.9070  -294.0319   535.7173 H6            1 RES     
   18163 H6        -400.4225  -293.2795   537.2666 H6            1 RES     
   18164 H6        -400.2034  -291.0398   535.8496 H6            1 RES     
   18165 H6        -400.5113  -292.0324   534.4190 H6            1 RES     
   18166 H6        -398.1337  -291.5740   534.8023 H6            1 RES     
   18167 H6        -398.1916  -292.3124   536.4416 H6            1 RES     
   18168 H6        -398.6840  -293.8384   533.7868 H6            1 RES     
   18169 H6        -398.7146  -294.5359   535.4485 H6            1 RES     
   18170 H6        -396.3195  -293.9420   535.7892 H6            1 RES     
   18171 H6        -396.6265  -295.0871   534.4344 H6            1 RES     
   18172 H6        -396.0937  -292.0645   534.1060 H6            1 RES     
   18173 H6        -396.4009  -293.2294   532.7677 H6            1 RES     
   18174 H6        -393.9980  -292.6626   533.0645 H6            1 RES     
   18175 H6        -394.0272  -293.2662   534.7595 H6            1 RES     
   18176 H6        -394.4963  -295.5898   533.9075 H6            1 RES     
   18177 H6        -393.0112  -294.9050   533.1752 H6            1 RES     
   18178 H6        -394.5351  -294.9506   532.2117 H6            1 RES     
   18179 C0        -415.7240  -297.3102   530.1009 C0            1 RES     
   18180 C0        -417.1925  -297.2309   530.5193 C0            1 RES     
   18181 C0        -417.3217  -296.7844   531.7917 C0            1 RES     
   18182 S1        -418.9145  -296.6200   532.2791 S1            1 RES     
   18183 C0        -419.5101  -297.1487   530.7732 C0            1 RES     
   18184 C0        -418.4326  -297.3918   529.9044 C0            1 RES     
   18185 C0        -416.0441  -296.4165   532.2967 C0            1 RES     
   18186 C0        -415.1522  -296.6341   531.3566 C0            1 RES     
   18187 C0        -413.8717  -296.0369   531.6874 C0            1 RES     
   18188 C0        -413.9287  -295.4169   532.9264 C0            1 RES     
   18189 S1        -415.5230  -295.5450   533.7619 S1            1 RES     
   18190 H2        -418.5748  -297.6161   528.8688 H2            1 RES     
   18191 H2        -413.0337  -295.9428   531.0185 H2            1 RES     
   18192 N3        -422.5832  -298.3312   528.9435 N3            1 RES     
   18193 C0        -421.2851  -298.1448   529.3173 C0            1 RES     
   18194 C0        -420.9406  -297.3071   530.3971 C0            1 RES     
   18195 C0        -421.9981  -296.6824   531.0789 C0            1 RES     
   18196 N3        -421.8425  -295.8431   532.1374 N3            1 RES     
   18197 S1        -423.4006  -295.4094   532.4825 S1            1 RES     
   18198 N3        -424.2978  -296.2279   531.3631 N3            1 RES     
   18199 C0        -423.3404  -296.8865   530.6607 C0            1 RES     
   18200 C0        -423.6166  -297.7208   529.5855 C0            1 RES     
   18201 H4        -420.5182  -298.6813   528.7870 H4            1 RES     
   18202 C5        -423.2908  -296.5515   523.8085 C5            1 RES     
   18203 C5        -422.2560  -295.8591   524.6968 C5            1 RES     
   18204 C5        -421.5220  -296.8156   525.6533 C5            1 RES     
   18205 C5        -420.7025  -297.9111   524.9433 C5            1 RES     
   18206 C5        -419.9640  -298.7825   525.9740 C5            1 RES     
   18207 C5        -419.3053  -300.0181   525.3443 C5            1 RES     
   18208 C5        -418.6359  -300.9334   526.3970 C5            1 RES     
   18209 C5        -417.2301  -300.4643   526.8856 C5            1 RES     
   18210 C5        -417.0906  -300.1358   528.4041 C5            1 RES     
   18211 C5        -417.4247  -301.3586   529.3076 C5            1 RES     
   18212 C5        -417.8725  -300.9418   530.7210 C5            1 RES     
   18213 C5        -418.6776  -302.0629   531.4125 C5            1 RES     
   18214 C5        -419.3608  -301.5440   532.6906 C5            1 RES     
   18215 C5        -420.4102  -302.5166   533.2585 C5            1 RES     
   18216 C5        -419.8234  -303.8314   533.7600 C5            1 RES     
   18217 C5        -415.6631  -299.5386   528.6282 C5            1 RES     
   18218 C0        -415.1399  -298.7798   529.9081 C0            1 RES     
   18219 C5        -413.5567  -298.7713   529.7588 C5            1 RES     
   18220 C5        -412.8095  -299.8170   530.6524 C5            1 RES     
   18221 C5        -412.5116  -299.3064   532.1007 C5            1 RES     
   18222 C5        -411.3676  -298.2723   532.2217 C5            1 RES     
   18223 C5        -411.2185  -297.6523   533.6230 C5            1 RES     
   18224 C5        -410.6665  -298.5951   534.7093 C5            1 RES     
   18225 C5        -409.2362  -299.1185   534.4561 C5            1 RES     
   18226 C5        -408.1890  -298.0058   534.3425 C5            1 RES     
   18227 C5        -411.5567  -300.4522   529.9621 C5            1 RES     
   18228 C5        -410.5808  -299.5002   529.2234 C5            1 RES     
   18229 C5        -409.2785  -300.1969   528.7681 C5            1 RES     
   18230 C5        -409.4978  -301.3760   527.8012 C5            1 RES     
   18231 C5        -408.1857  -302.0497   527.3512 C5            1 RES     
   18232 C5        -407.3035  -301.1450   526.4691 C5            1 RES     
   18233 C5        -405.9929  -301.8170   526.0216 C5            1 RES     
   18234 C5        -406.2021  -303.0391   525.1260 C5            1 RES     
   18235 H6        -422.8053  -297.2691   523.1165 H6            1 RES     
   18236 H6        -423.8158  -295.7897   523.1935 H6            1 RES     
   18237 H6        -424.0426  -297.0841   524.4288 H6            1 RES     
   18238 H6        -421.5202  -295.3261   524.0578 H6            1 RES     
   18239 H6        -422.7895  -295.1028   525.3143 H6            1 RES     
   18240 H6        -420.8392  -296.2053   526.2834 H6            1 RES     
   18241 H6        -422.2719  -297.2936   526.3217 H6            1 RES     
   18242 H6        -419.9650  -297.4531   524.2485 H6            1 RES     
   18243 H6        -421.3953  -298.5550   524.3619 H6            1 RES     
   18244 H6        -419.2133  -298.1672   526.5147 H6            1 RES     
   18245 H6        -420.7227  -299.1628   526.6856 H6            1 RES     
   18246 H6        -420.1256  -300.6016   524.8701 H6            1 RES     
   18247 H6        -418.5795  -299.7442   524.5487 H6            1 RES     
   18248 H6        -419.3619  -301.1037   527.2175 H6            1 RES     
   18249 H6        -418.4764  -301.9186   525.9093 H6            1 RES     
   18250 H6        -416.9678  -299.5526   526.3031 H6            1 RES     
   18251 H6        -416.4738  -301.2298   526.6066 H6            1 RES     
   18252 H6        -417.8611  -299.4116   528.5469 H6            1 RES     
   18253 H6        -418.3052  -301.8597   528.8703 H6            1 RES     
   18254 H6        -416.6166  -302.1217   529.3177 H6            1 RES     
   18255 H6        -417.0135  -300.5982   531.3353 H6            1 RES     
   18256 H6        -418.5822  -300.0963   530.6032 H6            1 RES     
   18257 H6        -418.0308  -302.9418   531.6214 H6            1 RES     
   18258 H6        -419.4898  -302.3791   530.7206 H6            1 RES     
   18259 H6        -418.6003  -301.2890   533.4587 H6            1 RES     
   18260 H6        -419.9181  -300.6154   532.4331 H6            1 RES     
   18261 H6        -421.1788  -302.7299   532.4823 H6            1 RES     
   18262 H6        -420.9201  -302.0186   534.1116 H6            1 RES     
   18263 H6        -419.0811  -303.6367   534.5620 H6            1 RES     
   18264 H6        -419.3440  -304.3946   532.9337 H6            1 RES     
   18265 H6        -420.6413  -304.4576   534.1771 H6            1 RES     
   18266 H6        -415.4638  -298.8213   527.8011 H6            1 RES     
   18267 H6        -414.9973  -300.4178   528.4634 H6            1 RES     
   18268 H6        -413.3142  -298.9962   528.6989 H6            1 RES     
   18269 H6        -413.0948  -297.7792   529.8576 H6            1 RES     
   18270 H6        -413.5076  -300.6757   530.7828 H6            1 RES     
   18271 H6        -413.4518  -298.8796   532.5125 H6            1 RES     
   18272 H6        -412.2345  -300.1764   532.7337 H6            1 RES     
   18273 H6        -410.3983  -298.7205   531.9428 H6            1 RES     
   18274 H6        -411.5640  -297.4458   531.5232 H6            1 RES     
   18275 H6        -410.5416  -296.7754   533.5492 H6            1 RES     
   18276 H6        -412.2041  -297.2645   533.9505 H6            1 RES     
   18277 H6        -411.3515  -299.4594   534.8321 H6            1 RES     
   18278 H6        -410.6588  -298.0354   535.6706 H6            1 RES     
   18279 H6        -409.2037  -299.7470   533.5428 H6            1 RES     
   18280 H6        -408.9540  -299.7647   535.3153 H6            1 RES     
   18281 H6        -408.1900  -297.3752   535.2569 H6            1 RES     
   18282 H6        -407.1806  -298.4560   534.2254 H6            1 RES     
   18283 H6        -408.3746  -297.3673   533.4545 H6            1 RES     
   18284 H6        -411.9334  -301.1552   529.1892 H6            1 RES     
   18285 H6        -411.0145  -301.0572   530.7213 H6            1 RES     
   18286 H6        -410.2654  -298.6573   529.8547 H6            1 RES     
   18287 H6        -411.0827  -299.0591   528.3391 H6            1 RES     
   18288 H6        -408.6589  -299.4210   528.2730 H6            1 RES     
   18289 H6        -408.7281  -300.5592   529.6643 H6            1 RES     
   18290 H6        -410.0662  -301.0386   526.9076 H6            1 RES     
   18291 H6        -410.0932  -302.1537   528.3234 H6            1 RES     
   18292 H6        -407.6141  -302.3842   528.2449 H6            1 RES     
   18293 H6        -408.4705  -302.9479   526.7651 H6            1 RES     
   18294 H6        -407.0163  -300.2391   527.0403 H6            1 RES     
   18295 H6        -407.8771  -300.8258   525.5716 H6            1 RES     
   18296 H6        -405.4060  -301.0703   525.4434 H6            1 RES     
   18297 H6        -405.3958  -302.1097   526.9123 H6            1 RES     
   18298 H6        -406.7241  -303.8522   525.6694 H6            1 RES     
   18299 H6        -405.2141  -303.4296   524.8021 H6            1 RES     
   18300 H6        -406.7859  -302.7608   524.2234 H6            1 RES     
   18301 C0        -427.6308  -298.3415   526.4489 C0            1 RES     
   18302 C0        -428.9157  -297.9785   527.1939 C0            1 RES     
   18303 C0        -428.7096  -297.9065   528.5309 C0            1 RES     
   18304 S1        -430.0725  -297.4509   529.3891 S1            1 RES     
   18305 C0        -431.0147  -297.3260   527.9754 C0            1 RES     
   18306 C0        -430.2121  -297.5970   526.8541 C0            1 RES     
   18307 C0        -427.3249  -298.0772   528.8067 C0            1 RES     
   18308 C0        -426.6969  -298.2518   527.6658 C0            1 RES     
   18309 C0        -425.2579  -298.1628   527.8296 C0            1 RES     
   18310 C0        -424.9315  -297.9427   529.1592 C0            1 RES     
   18311 S1        -426.3441  -297.8561   530.2788 S1            1 RES     
   18312 H2        -430.5643  -297.4589   525.8542 H2            1 RES     
   18313 H2        -424.5386  -298.1168   527.0301 H2            1 RES     
   18314 N3        -434.5304  -297.0072   526.6608 N3            1 RES     
   18315 C0        -433.2053  -297.3112   526.7655 C0            1 RES     
   18316 C0        -432.4545  -296.9584   527.9049 C0            1 RES     
   18317 C0        -433.1380  -296.2896   528.9339 C0            1 RES     
   18318 N3        -432.5659  -295.8761   530.0961 N3            1 RES     
   18319 S1        -433.8270  -295.1426   530.8748 S1            1 RES     
   18320 N3        -435.0926  -295.3107   529.8269 N3            1 RES     
   18321 C0        -434.5165  -295.9764   528.7930 C0            1 RES     
   18322 C0        -435.2018  -296.3466   527.6433 C0            1 RES     
   18323 H4        -432.7423  -297.8620   525.9658 H4            1 RES     
   18324 C5        -435.3198  -293.6790   522.3787 C5            1 RES     
   18325 C5        -434.0001  -293.5971   523.1475 C5            1 RES     
   18326 C5        -433.4988  -294.9576   523.6636 C5            1 RES     
   18327 C5        -433.1975  -295.9815   522.5514 C5            1 RES     
   18328 C5        -432.6532  -297.2872   523.1565 C5            1 RES     
   18329 C5        -432.5372  -298.4174   522.1239 C5            1 RES     
   18330 C5        -432.0689  -299.7502   522.7551 C5            1 RES     
   18331 C5        -430.5334  -299.8598   523.0102 C5            1 RES     
   18332 C5        -430.0813  -300.0431   524.4918 C5            1 RES     
   18333 C5        -430.6721  -301.3311   525.1361 C5            1 RES     
   18334 C5        -430.7533  -301.2379   526.6712 C5            1 RES     
   18335 C5        -431.7796  -302.2385   527.2448 C5            1 RES     
   18336 C5        -432.0655  -301.9461   528.7289 C5            1 RES     
   18337 C5        -433.2875  -302.7061   529.2752 C5            1 RES     
   18338 C5        -433.1062  -304.2196   529.3104 C5            1 RES     
   18339 C5        -428.5201  -299.9643   524.5217 C5            1 RES     
   18340 C0        -427.6006  -299.7924   525.7917 C0            1 RES     
   18341 C5        -426.1419  -300.1861   525.2958 C5            1 RES     
   18342 C5        -425.6667  -301.6135   525.7285 C5            1 RES     
   18343 C5        -425.0163  -301.6544   527.1506 C5            1 RES     
   18344 C5        -423.5889  -301.0664   527.2489 C5            1 RES     
   18345 C5        -423.0476  -300.9518   528.6855 C5            1 RES     
   18346 C5        -422.6933  -302.2865   529.3686 C5            1 RES     
   18347 C5        -421.5683  -303.0930   528.6846 C5            1 RES     
   18348 C5        -420.2380  -302.3372   528.6011 C5            1 RES     
   18349 C5        -424.8057  -302.3443   524.6450 C5            1 RES     
   18350 C5        -423.6829  -301.5325   523.9488 C5            1 RES     
   18351 C5        -422.7631  -302.4021   523.0620 C5            1 RES     
   18352 C5        -423.4946  -303.1352   521.9215 C5            1 RES     
   18353 C5        -422.5573  -303.9882   521.0429 C5            1 RES     
   18354 C5        -421.5578  -303.1513   520.2211 C5            1 RES     
   18355 C5        -420.6210  -304.0031   519.3456 C5            1 RES     
   18356 C5        -421.3473  -304.7990   518.2602 C5            1 RES     
   18357 H6        -435.2021  -294.2688   521.4472 H6            1 RES     
   18358 H6        -435.6429  -292.6552   522.0931 H6            1 RES     
   18359 H6        -436.1109  -294.1359   523.0104 H6            1 RES     
   18360 H6        -433.2264  -293.1299   522.5018 H6            1 RES     
   18361 H6        -434.1602  -292.9366   524.0284 H6            1 RES     
   18362 H6        -432.5709  -294.7761   524.2483 H6            1 RES     
   18363 H6        -434.2633  -295.3792   524.3530 H6            1 RES     
   18364 H6        -432.4549  -295.5669   521.8351 H6            1 RES     
   18365 H6        -434.1390  -296.2050   522.0072 H6            1 RES     
   18366 H6        -431.6730  -297.0941   523.6426 H6            1 RES     
   18367 H6        -433.3875  -297.6297   523.9117 H6            1 RES     
   18368 H6        -433.5625  -298.5812   521.7239 H6            1 RES     
   18369 H6        -431.8808  -298.1384   521.2718 H6            1 RES     
   18370 H6        -432.6877  -299.9418   523.6550 H6            1 RES     
   18371 H6        -432.3155  -300.5527   522.0278 H6            1 RES     
   18372 H6        -430.0678  -298.9298   522.6131 H6            1 RES     
   18373 H6        -430.1211  -300.6903   522.3971 H6            1 RES     
   18374 H6        -430.5396  -299.2064   524.9696 H6            1 RES     
   18375 H6        -431.7211  -301.4136   524.8038 H6            1 RES     
   18376 H6        -430.1702  -302.2587   524.7854 H6            1 RES     
   18377 H6        -429.7519  -301.3451   527.1390 H6            1 RES     
   18378 H6        -431.1513  -300.2311   526.9171 H6            1 RES     
   18379 H6        -431.4386  -303.2847   527.0915 H6            1 RES     
   18380 H6        -432.7392  -302.0966   526.6995 H6            1 RES     
   18381 H6        -431.1637  -302.1517   529.3436 H6            1 RES     
   18382 H6        -432.3132  -300.8654   528.8277 H6            1 RES     
   18383 H6        -434.1841  -302.4578   528.6644 H6            1 RES     
   18384 H6        -433.4782  -302.3572   530.3134 H6            1 RES     
   18385 H6        -432.2367  -304.4850   529.9472 H6            1 RES     
   18386 H6        -432.9618  -304.6273   528.2893 H6            1 RES     
   18387 H6        -434.0186  -304.6840   529.7429 H6            1 RES     
   18388 H6        -428.2120  -299.1227   523.8620 H6            1 RES     
   18389 H6        -428.2138  -300.9068   524.0104 H6            1 RES     
   18390 H6        -426.1390  -300.1497   524.1861 H6            1 RES     
   18391 H6        -425.3679  -299.4382   525.5170 H6            1 RES     
   18392 H6        -426.5847  -302.2401   525.8085 H6            1 RES     
   18393 H6        -425.6939  -301.1204   527.8516 H6            1 RES     
   18394 H6        -424.9578  -302.7127   527.4837 H6            1 RES     
   18395 H6        -422.8726  -301.6669   526.6620 H6            1 RES     
   18396 H6        -423.5957  -300.0514   526.8254 H6            1 RES     
   18397 H6        -422.1355  -300.3190   528.6680 H6            1 RES     
   18398 H6        -423.7924  -300.4160   529.3080 H6            1 RES     
   18399 H6        -423.6020  -302.9197   529.4371 H6            1 RES     
   18400 H6        -422.3655  -302.0584   530.4068 H6            1 RES     
   18401 H6        -421.8746  -303.4092   527.6666 H6            1 RES     
   18402 H6        -421.3990  -304.0143   529.2828 H6            1 RES     
   18403 H6        -419.9014  -302.0282   529.6136 H6            1 RES     
   18404 H6        -419.4632  -302.9980   528.1581 H6            1 RES     
   18405 H6        -420.3238  -301.4417   527.9521 H6            1 RES     
   18406 H6        -425.4987  -302.6547   523.8346 H6            1 RES     
   18407 H6        -424.3942  -303.2719   525.0996 H6            1 RES     
   18408 H6        -423.0204  -301.0355   524.6718 H6            1 RES     
   18409 H6        -424.1287  -300.7295   523.3284 H6            1 RES     
   18410 H6        -421.9970  -301.7224   522.6354 H6            1 RES     
   18411 H6        -422.2443  -303.1503   523.7011 H6            1 RES     
   18412 H6        -424.0381  -302.4055   521.2831 H6            1 RES     
   18413 H6        -424.2350  -303.8314   522.3679 H6            1 RES     
   18414 H6        -422.0098  -304.7161   521.6813 H6            1 RES     
   18415 H6        -423.2033  -304.5575   520.3429 H6            1 RES     
   18416 H6        -420.9092  -302.5713   520.9083 H6            1 RES     
   18417 H6        -422.1128  -302.4356   519.5759 H6            1 RES     
   18418 H6        -419.9067  -303.3164   518.8409 H6            1 RES     
   18419 H6        -420.0363  -304.6991   519.9853 H6            1 RES     
   18420 H6        -422.0280  -305.5544   518.7019 H6            1 RES     
   18421 H6        -420.6006  -305.3390   517.6401 H6            1 RES     
   18422 H6        -421.9261  -304.1164   517.6029 H6            1 RES     
   18423 C0        -439.5922  -294.8672   525.4358 C0            1 RES     
   18424 C0        -440.5659  -294.3922   526.5147 C0            1 RES     
   18425 C0        -440.1623  -294.7755   527.7498 C0            1 RES     
   18426 S1        -441.1621  -294.2270   528.9749 S1            1 RES     
   18427 C0        -442.1978  -293.4342   527.8791 C0            1 RES     
   18428 C0        -441.6962  -293.5795   526.5744 C0            1 RES     
   18429 C0        -438.8886  -295.4016   527.6589 C0            1 RES     
   18430 C0        -438.5207  -295.4039   526.3974 C0            1 RES     
   18431 C0        -437.1258  -295.7752   526.2490 C0            1 RES     
   18432 C0        -436.5619  -296.0549   527.4845 C0            1 RES     
   18433 S1        -437.6938  -295.9061   528.8820 S1            1 RES     
   18434 H2        -442.1192  -293.0616   525.7402 H2            1 RES     
   18435 H2        -436.5517  -295.7014   525.3415 H2            1 RES     
   18436 N3        -445.5558  -291.7696   527.5021 N3            1 RES     
   18437 C0        -444.4060  -292.4507   527.2316 C0            1 RES     
   18438 C0        -443.4287  -292.6728   528.2227 C0            1 RES     
   18439 C0        -443.7001  -292.1705   529.5061 C0            1 RES     
   18440 N3        -442.8662  -292.2935   530.5732 N3            1 RES     
   18441 S1        -443.6900  -291.4964   531.7651 S1            1 RES     
   18442 N3        -445.0733  -290.9875   531.0197 N3            1 RES     
   18443 C0        -444.9018  -291.4554   529.7566 C0            1 RES     
   18444 C0        -445.8252  -291.2646   528.7370 C0            1 RES     
   18445 H4        -444.2690  -292.8503   526.2423 H4            1 RES     
   18446 C5        -445.7880  -287.2527   524.4068 C5            1 RES     
   18447 C5        -444.4220  -287.7739   524.8559 C5            1 RES     
   18448 C5        -444.3335  -289.3093   524.9134 C5            1 RES     
   18449 C5        -444.5482  -290.0044   523.5544 C5            1 RES     
   18450 C5        -444.3890  -291.5278   523.6991 C5            1 RES     
   18451 C5        -444.8007  -292.2913   522.4324 C5            1 RES     
   18452 C5        -444.7177  -293.8258   522.6126 C5            1 RES     
   18453 C5        -443.2859  -294.4324   522.4824 C5            1 RES     
   18454 C5        -442.7173  -295.1606   523.7392 C5            1 RES     
   18455 C5        -443.6056  -296.3602   524.1809 C5            1 RES     
   18456 C5        -443.4352  -296.7014   525.6730 C5            1 RES     
   18457 C5        -444.6442  -297.4951   526.2131 C5            1 RES     
   18458 C5        -444.6057  -297.5819   527.7495 C5            1 RES     
   18459 C5        -445.9213  -298.0927   528.3641 C5            1 RES     
   18460 C5        -446.2496  -299.5371   528.0031 C5            1 RES     
   18461 C5        -441.2306  -295.5363   523.4341 C5            1 RES     
   18462 C0        -440.1378  -296.0094   524.4685 C0            1 RES     
   18463 C5        -438.9772  -296.6343   523.5788 C5            1 RES     
   18464 C5        -438.9470  -298.1991   523.5477 C5            1 RES     
   18465 C5        -438.1544  -298.8356   524.7369 C5            1 RES     
   18466 C5        -436.6140  -298.7283   524.6456 C5            1 RES     
   18467 C5        -435.8696  -299.1961   525.9093 C5            1 RES     
   18468 C5        -435.8863  -300.7155   526.1639 C5            1 RES     
   18469 C5        -435.2004  -301.5688   525.0751 C5            1 RES     
   18470 C5        -433.7204  -301.2277   524.8730 C5            1 RES     
   18471 C5        -438.5383  -298.7921   522.1583 C5            1 RES     
   18472 C5        -437.3191  -298.1621   521.4364 C5            1 RES     
   18473 C5        -436.8740  -298.9561   520.1873 C5            1 RES     
   18474 C5        -437.9596  -299.0866   519.1020 C5            1 RES     
   18475 C5        -437.4916  -299.8727   517.8606 C5            1 RES     
   18476 C5        -436.3966  -299.1483   517.0536 C5            1 RES     
   18477 C5        -435.9282  -299.9340   515.8155 C5            1 RES     
   18478 C5        -437.0221  -300.1397   514.7666 C5            1 RES     
   18479 H6        -446.0046  -287.5523   523.3614 H6            1 RES     
   18480 H6        -445.7896  -286.1426   524.4486 H6            1 RES     
   18481 H6        -446.5890  -287.6327   525.0758 H6            1 RES     
   18482 H6        -443.6357  -287.3756   524.1800 H6            1 RES     
   18483 H6        -444.2286  -287.3830   525.8795 H6            1 RES     
   18484 H6        -443.3257  -289.5755   525.2998 H6            1 RES     
   18485 H6        -445.0899  -289.6814   525.6392 H6            1 RES     
   18486 H6        -443.8184  -289.6247   522.8064 H6            1 RES     
   18487 H6        -445.5770  -289.7847   523.1995 H6            1 RES     
   18488 H6        -443.3424  -291.7693   523.9832 H6            1 RES     
   18489 H6        -445.0817  -291.8554   524.4990 H6            1 RES     
   18490 H6        -445.8676  -292.0357   522.2467 H6            1 RES     
   18491 H6        -444.2152  -291.9715   521.5436 H6            1 RES     
   18492 H6        -445.2323  -294.0902   523.5584 H6            1 RES     
   18493 H6        -445.3161  -294.2771   521.7928 H6            1 RES     
   18494 H6        -442.5986  -293.5971   522.2191 H6            1 RES     
   18495 H6        -443.2629  -295.1280   521.6156 H6            1 RES     
   18496 H6        -442.8002  -294.4068   524.4898 H6            1 RES     
   18497 H6        -444.6581  -296.0433   524.0836 H6            1 RES     
   18498 H6        -443.4944  -297.2465   523.5195 H6            1 RES     
   18499 H6        -442.4710  -297.2179   525.8648 H6            1 RES     
   18500 H6        -443.4378  -295.7413   526.2304 H6            1 RES     
   18501 H6        -444.6948  -298.5024   525.7469 H6            1 RES     
   18502 H6        -445.5687  -296.9360   525.9465 H6            1 RES     
   18503 H6        -443.7465  -298.2032   528.0798 H6            1 RES     
   18504 H6        -444.4643  -296.5533   528.1512 H6            1 RES     
   18505 H6        -446.7610  -297.4348   528.0463 H6            1 RES     
   18506 H6        -445.8379  -298.0239   529.4705 H6            1 RES     
   18507 H6        -445.4373  -300.2106   528.3475 H6            1 RES     
   18508 H6        -446.3934  -299.6516   526.9095 H6            1 RES     
   18509 H6        -447.1942  -299.8316   528.5092 H6            1 RES     
   18510 H6        -440.7564  -294.6607   522.9373 H6            1 RES     
   18511 H6        -441.3294  -296.3342   522.6615 H6            1 RES     
   18512 H6        -439.1180  -296.2771   522.5371 H6            1 RES     
   18513 H6        -437.9760  -296.2332   523.7884 H6            1 RES     
   18514 H6        -440.0001  -298.5371   523.6839 H6            1 RES     
   18515 H6        -438.5111  -298.3621   525.6773 H6            1 RES     
   18516 H6        -438.4045  -299.9167   524.7916 H6            1 RES     
   18517 H6        -436.2274  -299.3068   523.7888 H6            1 RES     
   18518 H6        -436.3429  -297.6748   524.4836 H6            1 RES     
   18519 H6        -434.8112  -298.8692   525.8351 H6            1 RES     
   18520 H6        -436.2993  -298.6792   526.7910 H6            1 RES     
   18521 H6        -436.9345  -301.0588   526.2855 H6            1 RES     
   18522 H6        -435.3593  -300.9030   527.1253 H6            1 RES     
   18523 H6        -435.7339  -301.4738   524.1073 H6            1 RES     
   18524 H6        -435.2644  -302.6334   525.3876 H6            1 RES     
   18525 H6        -433.1618  -301.3362   525.8270 H6            1 RES     
   18526 H6        -433.2790  -301.9198   524.1250 H6            1 RES     
   18527 H6        -433.5941  -300.1952   524.4876 H6            1 RES     
   18528 H6        -439.4014  -298.6438   521.4753 H6            1 RES     
   18529 H6        -438.3985  -299.8886   522.2789 H6            1 RES     
   18530 H6        -436.4348  -298.1057   522.0871 H6            1 RES     
   18531 H6        -437.5554  -297.1213   521.1375 H6            1 RES     
   18532 H6        -435.9936  -298.4254   519.7699 H6            1 RES     
   18533 H6        -436.5488  -299.9728   520.5002 H6            1 RES     
   18534 H6        -438.3139  -298.0801   518.7910 H6            1 RES     
   18535 H6        -438.8187  -299.6453   519.5285 H6            1 RES     
   18536 H6        -437.1329  -300.8787   518.1712 H6            1 RES     
   18537 H6        -438.3813  -300.0064   517.2111 H6            1 RES     
   18538 H6        -435.5027  -299.0017   517.6929 H6            1 RES     
   18539 H6        -436.7673  -298.1494   516.7355 H6            1 RES     
   18540 H6        -435.1047  -299.3597   515.3376 H6            1 RES     
   18541 H6        -435.5241  -300.9218   516.1263 H6            1 RES     
   18542 H6        -437.8458  -300.7679   515.1613 H6            1 RES     
   18543 H6        -436.5917  -300.6617   513.8857 H6            1 RES     
   18544 H6        -437.4276  -299.1607   514.4347 H6            1 RES     
   18545 C0        -449.7391  -288.0319   527.9834 C0            1 RES     
   18546 C0        -450.3385  -287.6397   529.3342 C0            1 RES     
   18547 C0        -449.9161  -288.4650   530.3220 C0            1 RES     
   18548 S1        -450.4950  -288.0411   531.8342 S1            1 RES     
   18549 C0        -451.3516  -286.7046   531.2162 C0            1 RES     
   18550 C0        -451.1148  -286.5966   529.8352 C0            1 RES     
   18551 C0        -448.9485  -289.3688   529.8029 C0            1 RES     
   18552 C0        -448.7829  -289.1051   528.5263 C0            1 RES     
   18553 C0        -447.6257  -289.7933   527.9849 C0            1 RES     
   18554 C0        -447.0193  -290.5691   528.9613 C0            1 RES     
   18555 S1        -447.8299  -290.5237   530.5728 S1            1 RES     
   18556 H2        -451.4545  -285.7602   529.2623 H2            1 RES     
   18557 H2        -447.1929  -289.6217   527.0145 H2            1 RES     
   18558 N3        -453.9845  -284.1286   532.0048 N3            1 RES     
   18559 C0        -453.1758  -284.9953   531.3308 C0            1 RES     
   18560 C0        -452.1990  -285.7631   531.9962 C0            1 RES     
   18561 C0        -452.1055  -285.6033   533.3887 C0            1 RES     
   18562 N3        -451.2188  -286.2624   534.1814 N3            1 RES     
   18563 S1        -451.5556  -285.6511   535.6806 S1            1 RES     
   18564 N3        -452.7816  -284.5789   535.4060 N3            1 RES     
   18565 C0        -452.9540  -284.6851   534.0633 C0            1 RES     
   18566 C0        -453.8950  -283.9527   533.3515 C0            1 RES     
   18567 H4        -453.3194  -285.1095   530.2708 H4            1 RES     
   18568 C5        -453.1359  -279.0294   530.1842 C5            1 RES     
   18569 C5        -451.9716  -280.0213   530.1795 C5            1 RES     
   18570 C5        -452.3906  -281.4662   529.8553 C5            1 RES     
   18571 C5        -453.0121  -281.6435   528.4559 C5            1 RES     
   18572 C5        -453.3490  -283.1229   528.2012 C5            1 RES     
   18573 C5        -454.1640  -283.3342   526.9174 C5            1 RES     
   18574 C5        -454.5707  -284.8128   526.7108 C5            1 RES     
   18575 C5        -453.4546  -285.7316   526.1234 C5            1 RES     
   18576 C5        -452.9897  -286.9249   527.0141 C5            1 RES     
   18577 C5        -454.1545  -287.9007   527.3518 C5            1 RES     
   18578 C5        -453.8996  -288.6971   528.6451 C5            1 RES     
   18579 C5        -455.2151  -289.2406   529.2429 C5            1 RES     
   18580 C5        -454.9926  -289.7803   530.6673 C5            1 RES     
   18581 C5        -456.3032  -290.0570   531.4257 C5            1 RES     
   18582 C5        -457.1394  -291.1792   530.8208 C5            1 RES     
   18583 C5        -451.7702  -287.5970   526.3029 C5            1 RES     
   18584 C0        -450.7628  -288.6394   526.9246 C0            1 RES     
   18585 C5        -450.0124  -289.2765   525.6757 C5            1 RES     
   18586 C5        -450.5079  -290.7061   525.2740 C5            1 RES     
   18587 C5        -449.8131  -291.8586   526.0716 C5            1 RES     
   18588 C5        -448.3533  -292.1669   525.6634 C5            1 RES     
   18589 C5        -447.6370  -293.1737   526.5817 C5            1 RES     
   18590 C5        -448.1211  -294.6321   526.4714 C5            1 RES     
   18591 C5        -447.9172  -295.2863   525.0878 C5            1 RES     
   18592 C5        -446.4517  -295.3315   524.6428 C5            1 RES     
   18593 C5        -450.5182  -290.9563   523.7292 C5            1 RES     
   18594 C5        -449.2730  -290.5122   522.9188 C5            1 RES     
   18595 C5        -449.2966  -290.9974   521.4516 C5            1 RES     
   18596 C5        -450.5047  -290.4939   520.6391 C5            1 RES     
   18597 C5        -450.5030  -290.9806   519.1759 C5            1 RES     
   18598 C5        -449.3543  -290.3904   518.3351 C5            1 RES     
   18599 C5        -449.3518  -290.8779   516.8750 C5            1 RES     
   18600 C5        -450.5875  -290.4513   516.0812 C5            1 RES     
   18601 H6        -453.5839  -278.9364   529.1742 H6            1 RES     
   18602 H6        -452.7631  -278.0266   530.4834 H6            1 RES     
   18603 H6        -453.9154  -279.3472   530.9087 H6            1 RES     
   18604 H6        -451.2007  -279.6805   529.4561 H6            1 RES     
   18605 H6        -451.5180  -280.0179   531.1954 H6            1 RES     
   18606 H6        -451.4847  -282.1060   529.9317 H6            1 RES     
   18607 H6        -453.1180  -281.8060   530.6255 H6            1 RES     
   18608 H6        -452.3102  -281.2828   527.6727 H6            1 RES     
   18609 H6        -453.9487  -281.0495   528.4033 H6            1 RES     
   18610 H6        -452.4130  -283.7210   528.1777 H6            1 RES     
   18611 H6        -453.9918  -283.4616   529.0373 H6            1 RES     
   18612 H6        -455.1005  -282.7462   527.0418 H6            1 RES     
   18613 H6        -453.6363  -282.9465   526.0196 H6            1 RES     
   18614 H6        -455.0058  -285.1865   527.6596 H6            1 RES     
   18615 H6        -455.3935  -284.8170   525.9647 H6            1 RES     
   18616 H6        -452.5732  -285.0845   525.9146 H6            1 RES     
   18617 H6        -453.7855  -286.1202   525.1359 H6            1 RES     
   18618 H6        -452.7115  -286.4323   527.9188 H6            1 RES     
   18619 H6        -455.0448  -287.2867   527.5709 H6            1 RES     
   18620 H6        -454.4377  -288.5484   526.4941 H6            1 RES     
   18621 H6        -453.1446  -289.4964   528.4887 H6            1 RES     
   18622 H6        -453.5052  -287.9820   529.3971 H6            1 RES     
   18623 H6        -455.6620  -290.0105   528.5781 H6            1 RES     
   18624 H6        -455.9293  -288.3916   529.3296 H6            1 RES     
   18625 H6        -454.3510  -290.6864   530.6411 H6            1 RES     
   18626 H6        -454.4629  -288.9976   531.2556 H6            1 RES     
   18627 H6        -456.9127  -289.1267   531.4679 H6            1 RES     
   18628 H6        -456.0474  -290.3414   532.4695 H6            1 RES     
   18629 H6        -456.5569  -292.1240   530.8064 H6            1 RES     
   18630 H6        -457.4649  -290.9234   529.7920 H6            1 RES     
   18631 H6        -458.0473  -291.3309   531.4436 H6            1 RES     
   18632 H6        -451.1070  -286.7848   525.9306 H6            1 RES     
   18633 H6        -452.2356  -288.0724   525.4079 H6            1 RES     
   18634 H6        -450.1712  -288.6056   524.8054 H6            1 RES     
   18635 H6        -448.9159  -289.2527   525.7421 H6            1 RES     
   18636 H6        -451.5833  -290.7587   525.5611 H6            1 RES     
   18637 H6        -449.8568  -291.6008   527.1520 H6            1 RES     
   18638 H6        -450.3975  -292.7924   525.9272 H6            1 RES     
   18639 H6        -448.3048  -292.5537   524.6307 H6            1 RES     
   18640 H6        -447.7734  -291.2329   525.6951 H6            1 RES     
   18641 H6        -446.5515  -293.1508   526.3494 H6            1 RES     
   18642 H6        -447.7426  -292.8384   527.6332 H6            1 RES     
   18643 H6        -449.1958  -294.6867   526.7424 H6            1 RES     
   18644 H6        -447.5569  -295.2330   527.2183 H6            1 RES     
   18645 H6        -448.5190  -294.7662   524.3147 H6            1 RES     
   18646 H6        -448.2864  -296.3327   525.1492 H6            1 RES     
   18647 H6        -445.8329  -295.8669   525.3941 H6            1 RES     
   18648 H6        -446.3745  -295.8694   523.6743 H6            1 RES     
   18649 H6        -446.0452  -294.3106   524.4910 H6            1 RES     
   18650 H6        -451.3700  -290.3782   523.3122 H6            1 RES     
   18651 H6        -450.7349  -292.0331   523.5557 H6            1 RES     
   18652 H6        -448.3382  -290.8997   523.3483 H6            1 RES     
   18653 H6        -449.1900  -289.4070   522.9324 H6            1 RES     
   18654 H6        -448.3577  -290.6378   520.9825 H6            1 RES     
   18655 H6        -449.2867  -292.1096   521.4369 H6            1 RES     
   18656 H6        -450.5447  -289.3833   520.6599 H6            1 RES     
   18657 H6        -451.4317  -290.8877   521.1056 H6            1 RES     
   18658 H6        -450.4588  -292.0918   519.1539 H6            1 RES     
   18659 H6        -451.4684  -290.6626   518.7307 H6            1 RES     
   18660 H6        -448.3822  -290.6948   518.7727 H6            1 RES     
   18661 H6        -449.4132  -289.2801   518.3510 H6            1 RES     
   18662 H6        -448.4600  -290.4446   516.3716 H6            1 RES     
   18663 H6        -449.2591  -291.9852   516.8472 H6            1 RES     
   18664 H6        -451.5091  -290.9093   516.4933 H6            1 RES     
   18665 H6        -450.4828  -290.7916   515.0291 H6            1 RES     
   18666 H6        -450.6874  -289.3454   516.0872 H6            1 RES     
   18667 C0        -456.5788  -279.6771   534.2753 C0            1 RES     
   18668 C0        -456.8184  -279.5454   535.7797 C0            1 RES     
   18669 C0        -456.5597  -280.7075   536.4261 C0            1 RES     
   18670 S1        -456.7470  -280.5998   538.0859 S1            1 RES     
   18671 C0        -457.1892  -278.9566   538.0064 C0            1 RES     
   18672 C0        -457.1261  -278.5203   536.6720 C0            1 RES     
   18673 C0        -456.0298  -281.6537   535.5060 C0            1 RES     
   18674 C0        -455.9669  -281.0857   534.3228 C0            1 RES     
   18675 C0        -455.1917  -281.8817   533.3893 C0            1 RES     
   18676 C0        -454.7466  -283.0469   533.9951 C0            1 RES     
   18677 S1        -455.2618  -283.2490   535.7126 S1            1 RES     
   18678 H2        -457.2456  -277.4928   536.4020 H2            1 RES     
   18679 H2        -454.8671  -281.5625   532.4139 H2            1 RES     
   18680 N3        -458.6797  -276.0927   539.9470 N3            1 RES     
   18681 C0        -458.3075  -276.9150   538.9250 C0            1 RES     
   18682 C0        -457.5578  -278.0861   539.1550 C0            1 RES     
   18683 C0        -457.2223  -278.3738   540.4884 C0            1 RES     
   18684 N3        -456.5028  -279.4576   540.8846 N3            1 RES     
   18685 S1        -456.4038  -279.2428   542.5213 S1            1 RES     
   18686 N3        -457.2302  -277.8378   542.7881 N3            1 RES     
   18687 C0        -457.6145  -277.4934   541.5321 C0            1 RES     
   18688 C0        -458.3490  -276.3512   541.2418 C0            1 RES     
   18689 H4        -458.6279  -276.6688   537.9280 H4            1 RES     
   18690 C5        -456.4509  -271.1382   539.2247 C5            1 RES     
   18691 C5        -455.6947  -272.3707   538.7264 C5            1 RES     
   18692 C5        -456.6106  -273.4786   538.1767 C5            1 RES     
   18693 C5        -457.4454  -273.0564   536.9516 C5            1 RES     
   18694 C5        -458.2864  -274.2392   536.4410 C5            1 RES     
   18695 C5        -459.2968  -273.8275   535.3609 C5            1 RES     
   18696 C5        -460.1958  -275.0040   534.9118 C5            1 RES     
   18697 C5        -459.5420  -275.9857   533.8902 C5            1 RES     
   18698 C5        -459.3795  -277.4676   534.3492 C5            1 RES     
   18699 C5        -460.7426  -278.1308   534.7032 C5            1 RES     
   18700 C5        -460.5878  -279.3088   535.6831 C5            1 RES     
   18701 C5        -461.9115  -279.6105   536.4179 C5            1 RES     
   18702 C5        -461.6834  -280.5832   537.5891 C5            1 RES     
   18703 C5        -462.8915  -280.6895   538.5370 C5            1 RES     
   18704 C5        -464.1289  -281.3030   537.8912 C5            1 RES     
   18705 C5        -458.5648  -278.2167   533.2448 C5            1 RES     
   18706 C0        -457.8838  -279.6346   533.3625 C0            1 RES     
   18707 C5        -457.5703  -280.0625   531.8634 C5            1 RES     
   18708 C5        -458.5633  -281.1121   531.2612 C5            1 RES     
   18709 C5        -458.1859  -282.5942   531.5899 C5            1 RES     
   18710 C5        -456.9837  -283.1671   530.8029 C5            1 RES     
   18711 C5        -456.5209  -284.5574   531.2751 C5            1 RES     
   18712 C5        -457.4720  -285.7218   530.9392 C5            1 RES     
   18713 C5        -457.6929  -285.9722   529.4317 C5            1 RES     
   18714 C5        -456.4032  -286.2954   528.6701 C5            1 RES     
   18715 C5        -458.8726  -280.8859   529.7438 C5            1 RES     
   18716 C5        -457.6773  -280.5929   528.8005 C5            1 RES     
   18717 C5        -458.0660  -280.6005   527.3047 C5            1 RES     
   18718 C5        -459.1398  -279.5628   526.9259 C5            1 RES     
   18719 C5        -459.5050  -279.5799   525.4278 C5            1 RES     
   18720 C5        -458.3554  -279.1174   524.5116 C5            1 RES     
   18721 C5        -458.7195  -279.1364   523.0160 C5            1 RES     
   18722 C5        -459.8420  -278.1667   522.6432 C5            1 RES     
   18723 H6        -456.9796  -270.6316   538.3920 H6            1 RES     
   18724 H6        -455.7284  -270.4140   539.6580 H6            1 RES     
   18725 H6        -457.1820  -271.4214   540.0114 H6            1 RES     
   18726 H6        -454.9639  -272.0643   537.9480 H6            1 RES     
   18727 H6        -455.1280  -272.7925   539.5859 H6            1 RES     
   18728 H6        -455.9672  -274.3404   537.8954 H6            1 RES     
   18729 H6        -457.2939  -273.8100   538.9896 H6            1 RES     
   18730 H6        -456.7807  -272.6949   536.1368 H6            1 RES     
   18731 H6        -458.1293  -272.2347   537.2515 H6            1 RES     
   18732 H6        -457.6150  -275.0422   536.0683 H6            1 RES     
   18733 H6        -458.8812  -274.6126   537.2975 H6            1 RES     
   18734 H6        -459.9577  -273.0632   535.8269 H6            1 RES     
   18735 H6        -458.8017  -273.3588   534.4833 H6            1 RES     
   18736 H6        -460.5928  -275.5008   535.8200 H6            1 RES     
   18737 H6        -461.0694  -274.5582   534.3905 H6            1 RES     
   18738 H6        -458.5343  -275.5810   533.6453 H6            1 RES     
   18739 H6        -460.1181  -275.9589   532.9399 H6            1 RES     
   18740 H6        -458.8297  -277.3604   535.2573 H6            1 RES     
   18741 H6        -461.3386  -277.3834   535.2544 H6            1 RES     
   18742 H6        -461.3420  -278.3921   533.8044 H6            1 RES     
   18743 H6        -460.1708  -280.2058   535.1784 H6            1 RES     
   18744 H6        -459.8771  -278.9862   536.4726 H6            1 RES     
   18745 H6        -462.6772  -279.9940   535.7100 H6            1 RES     
   18746 H6        -462.2839  -278.6592   536.8591 H6            1 RES     
   18747 H6        -461.3893  -281.5840   537.2082 H6            1 RES     
   18748 H6        -460.8470  -280.1889   538.2090 H6            1 RES     
   18749 H6        -463.1453  -279.6802   538.9315 H6            1 RES     
   18750 H6        -462.6009  -281.3268   539.4003 H6            1 RES     
   18751 H6        -463.9010  -282.3260   537.5256 H6            1 RES     
   18752 H6        -464.4918  -280.6766   537.0511 H6            1 RES     
   18753 H6        -464.9388  -281.3685   538.6493 H6            1 RES     
   18754 H6        -457.7286  -277.5519   532.9330 H6            1 RES     
   18755 H6        -459.2821  -278.2584   532.3921 H6            1 RES     
   18756 H6        -457.6178  -279.1500   531.2326 H6            1 RES     
   18757 H6        -456.5303  -280.3685   531.6847 H6            1 RES     
   18758 H6        -459.5438  -280.9418   531.7626 H6            1 RES     
   18759 H6        -457.9896  -282.6625   532.6819 H6            1 RES     
   18760 H6        -459.0612  -283.2411   531.3669 H6            1 RES     
   18761 H6        -457.2116  -283.2321   529.7249 H6            1 RES     
   18762 H6        -456.1284  -282.4858   530.9204 H6            1 RES     
   18763 H6        -455.5333  -284.7737   530.8162 H6            1 RES     
   18764 H6        -456.3607  -284.5289   532.3718 H6            1 RES     
   18765 H6        -458.4547  -285.5489   531.4249 H6            1 RES     
   18766 H6        -457.0405  -286.6483   531.3783 H6            1 RES     
   18767 H6        -458.1901  -285.1014   528.9575 H6            1 RES     
   18768 H6        -458.3761  -286.8427   529.3285 H6            1 RES     
   18769 H6        -455.8984  -287.1786   529.1163 H6            1 RES     
   18770 H6        -456.6456  -286.5252   527.6110 H6            1 RES     
   18771 H6        -455.7065  -285.4322   528.6734 H6            1 RES     
   18772 H6        -459.5337  -279.9960   529.6763 H6            1 RES     
   18773 H6        -459.4564  -281.7583   529.3771 H6            1 RES     
   18774 H6        -456.8737  -281.3357   528.9056 H6            1 RES     
   18775 H6        -457.2311  -279.6102   529.0528 H6            1 RES     
   18776 H6        -457.1366  -280.3986   526.7334 H6            1 RES     
   18777 H6        -458.4280  -281.6154   527.0288 H6            1 RES     
   18778 H6        -458.8056  -278.5426   527.2139 H6            1 RES     
   18779 H6        -460.0699  -279.7986   527.4840 H6            1 RES     
   18780 H6        -459.8356  -280.6015   525.1375 H6            1 RES     
   18781 H6        -460.3624  -278.8875   525.2984 H6            1 RES     
   18782 H6        -457.4882  -279.7971   524.6354 H6            1 RES     
   18783 H6        -458.0396  -278.0908   524.7992 H6            1 RES     
   18784 H6        -457.8144  -278.8439   522.4401 H6            1 RES     
   18785 H6        -459.0044  -280.1664   522.7102 H6            1 RES     
   18786 H6        -460.7958  -278.4468   523.1337 H6            1 RES     
   18787 H6        -460.0048  -278.1993   521.5450 H6            1 RES     
   18788 H6        -459.5673  -277.1297   522.9297 H6            1 RES     
   18789 C0        -459.3040  -271.9592   543.7188 C0            1 RES     
   18790 C0        -459.2728  -272.2117   545.2265 C0            1 RES     
   18791 C0        -459.3266  -273.5357   545.5083 C0            1 RES     
   18792 S1        -459.2329  -273.8703   547.1456 S1            1 RES     
   18793 C0        -459.1111  -272.2209   547.5538 C0            1 RES     
   18794 C0        -459.0945  -271.4494   546.3793 C0            1 RES     
   18795 C0        -459.2754  -274.2802   544.2976 C0            1 RES     
   18796 C0        -459.1940  -273.4325   543.2969 C0            1 RES     
   18797 C0        -458.8660  -274.1048   542.0534 C0            1 RES     
   18798 C0        -458.7526  -275.4722   542.2540 C0            1 RES     
   18799 S1        -459.0594  -276.0147   543.9474 S1            1 RES     
   18800 H2        -458.9029  -270.3977   546.3908 H2            1 RES     
   18801 H2        -458.5940  -273.6190   541.1322 H2            1 RES     
   18802 N3        -459.2789  -269.7522   550.3940 N3            1 RES     
   18803 C0        -459.3479  -270.3093   549.1514 C0            1 RES     
   18804 C0        -459.0050  -271.6578   548.9266 C0            1 RES     
   18805 C0        -458.6006  -272.4053   550.0451 C0            1 RES     
   18806 N3        -458.2335  -273.7140   550.0046 N3            1 RES     
   18807 S1        -457.8405  -274.0245   551.5806 S1            1 RES     
   18808 N3        -458.1076  -272.5861   552.3473 N3            1 RES     
   18809 C0        -458.5279  -271.7958   551.3262 C0            1 RES     
   18810 C0        -458.8746  -270.4603   551.4839 C0            1 RES     
   18811 H4        -459.7049  -269.7025   548.3380 H4            1 RES     
   18812 C5        -455.6567  -265.6394   550.3659 C5            1 RES     
   18813 C5        -455.4302  -266.8326   549.4363 C5            1 RES     
   18814 C5        -456.7294  -267.4268   548.8639 C5            1 RES     
   18815 C5        -457.5397  -266.4477   547.9918 C5            1 RES     
   18816 C5        -458.7884  -267.1428   547.4220 C5            1 RES     
   18817 C5        -459.7457  -266.1663   546.7241 C5            1 RES     
   18818 C5        -461.0378  -266.8574   546.2271 C5            1 RES     
   18819 C5        -460.8970  -267.6395   544.8841 C5            1 RES     
   18820 C5        -461.1729  -269.1739   544.9356 C5            1 RES     
   18821 C5        -462.6149  -269.5003   545.4226 C5            1 RES     
   18822 C5        -462.7241  -270.9072   546.0395 C5            1 RES     
   18823 C5        -463.9560  -271.0258   546.9623 C5            1 RES     
   18824 C5        -463.9018  -272.3216   547.7916 C5            1 RES     
   18825 C5        -464.9312  -272.3565   548.9355 C5            1 RES     
   18826 C5        -466.3796  -272.3802   548.4600 C5            1 RES     
   18827 C5        -460.8163  -269.7645   543.5325 C5            1 RES     
   18828 C0        -460.6352  -271.2863   543.1593 C0            1 RES     
   18829 C5        -460.6950  -271.3268   541.5707 C5            1 RES     
   18830 C5        -462.0541  -271.8306   540.9796 C5            1 RES     
   18831 C5        -462.1478  -273.3875   540.8594 C5            1 RES     
   18832 C5        -461.3269  -274.0188   539.7104 C5            1 RES     
   18833 C5        -461.2903  -275.5578   539.7281 C5            1 RES     
   18834 C5        -462.6112  -276.2563   539.3527 C5            1 RES     
   18835 C5        -463.1117  -275.9819   537.9180 C5            1 RES     
   18836 C5        -462.1227  -276.4171   536.8316 C5            1 RES     
   18837 C5        -462.4803  -271.0929   539.6669 C5            1 RES     
   18838 C5        -461.4002  -270.8852   538.5738 C5            1 RES     
   18839 C5        -461.9751  -270.3451   537.2447 C5            1 RES     
   18840 C5        -462.6854  -268.9839   537.3707 C5            1 RES     
   18841 C5        -463.2418  -268.4585   536.0319 C5            1 RES     
   18842 C5        -462.1444  -268.0909   535.0143 C5            1 RES     
   18843 C5        -462.7001  -267.5682   533.6773 C5            1 RES     
   18844 C5        -463.4776  -266.2573   533.8039 C5            1 RES     
   18845 H6        -456.0985  -264.7841   549.8156 H6            1 RES     
   18846 H6        -454.6816  -265.3075   550.7820 H6            1 RES     
   18847 H6        -456.3224  -265.9229   551.2085 H6            1 RES     
   18848 H6        -454.7560  -266.5304   548.6070 H6            1 RES     
   18849 H6        -454.9210  -267.6290   550.0232 H6            1 RES     
   18850 H6        -456.4546  -268.3130   548.2516 H6            1 RES     
   18851 H6        -457.3628  -267.7755   549.7094 H6            1 RES     
   18852 H6        -456.9139  -266.0658   547.1558 H6            1 RES     
   18853 H6        -457.8629  -265.5922   548.6214 H6            1 RES     
   18854 H6        -458.4809  -267.9564   546.7307 H6            1 RES     
   18855 H6        -459.3471  -267.5675   548.2790 H6            1 RES     
   18856 H6        -460.0433  -265.4183   547.4922 H6            1 RES     
   18857 H6        -459.2514  -265.6204   545.8920 H6            1 RES     
   18858 H6        -461.4456  -267.4656   547.0595 H6            1 RES     
   18859 H6        -461.7779  -266.0517   546.0348 H6            1 RES     
   18860 H6        -459.8570  -267.4813   544.5200 H6            1 RES     
   18861 H6        -461.5588  -267.1749   544.1214 H6            1 RES     
   18862 H6        -460.4971  -269.4963   545.6958 H6            1 RES     
   18863 H6        -462.8455  -268.8109   546.2528 H6            1 RES     
   18864 H6        -463.3868  -269.3076   544.6465 H6            1 RES     
   18865 H6        -462.7036  -271.6966   545.2587 H6            1 RES     
   18866 H6        -461.8434  -271.0433   546.7015 H6            1 RES     
   18867 H6        -464.8968  -270.9538   546.3756 H6            1 RES     
   18868 H6        -463.9258  -270.1807   547.6857 H6            1 RES     
   18869 H6        -464.0131  -273.2076   547.1312 H6            1 RES     
   18870 H6        -462.9039  -272.3779   548.2816 H6            1 RES     
   18871 H6        -464.7777  -271.4781   549.6015 H6            1 RES     
   18872 H6        -464.7506  -273.2733   549.5378 H6            1 RES     
   18873 H6        -466.5579  -273.2723   547.8240 H6            1 RES     
   18874 H6        -466.6280  -271.4599   547.8935 H6            1 RES     
   18875 H6        -467.0506  -272.4342   549.3443 H6            1 RES     
   18876 H6        -459.8595  -269.3008   543.2045 H6            1 RES     
   18877 H6        -461.6189  -269.3514   542.8778 H6            1 RES     
   18878 H6        -460.5249  -270.2949   541.1979 H6            1 RES     
   18879 H6        -459.8514  -271.8466   541.0959 H6            1 RES     
   18880 H6        -462.8419  -271.5460   541.7146 H6            1 RES     
   18881 H6        -461.8343  -273.8247   541.8322 H6            1 RES     
   18882 H6        -463.2103  -273.6673   540.6946 H6            1 RES     
   18883 H6        -461.7122  -273.6987   538.7269 H6            1 RES     
   18884 H6        -460.2864  -273.6711   539.7880 H6            1 RES     
   18885 H6        -460.5053  -275.8989   539.0210 H6            1 RES     
   18886 H6        -460.9777  -275.8978   540.7360 H6            1 RES     
   18887 H6        -463.4024  -275.9640   540.0738 H6            1 RES     
   18888 H6        -462.4546  -277.3529   539.4544 H6            1 RES     
   18889 H6        -463.3529  -274.9075   537.7849 H6            1 RES     
   18890 H6        -464.0524  -276.5552   537.7710 H6            1 RES     
   18891 H6        -461.8823  -277.4968   536.9337 H6            1 RES     
   18892 H6        -462.5735  -276.2491   535.8307 H6            1 RES     
   18893 H6        -461.1858  -275.8250   536.8794 H6            1 RES     
   18894 H6        -462.8111  -270.0739   539.9598 H6            1 RES     
   18895 H6        -463.3658  -271.6187   539.2478 H6            1 RES     
   18896 H6        -460.8824  -271.8208   538.3187 H6            1 RES     
   18897 H6        -460.6225  -270.1864   538.9414 H6            1 RES     
   18898 H6        -461.1212  -270.2547   536.5421 H6            1 RES     
   18899 H6        -462.6884  -271.0901   536.8282 H6            1 RES     
   18900 H6        -461.9948  -268.2298   537.8061 H6            1 RES     
   18901 H6        -463.5531  -269.1012   538.0530 H6            1 RES     
   18902 H6        -463.9300  -269.2142   535.5932 H6            1 RES     
   18903 H6        -463.8300  -267.5467   536.2643 H6            1 RES     
   18904 H6        -461.5437  -268.9922   534.7773 H6            1 RES     
   18905 H6        -461.4688  -267.3256   535.4550 H6            1 RES     
   18906 H6        -461.8394  -267.3869   532.9970 H6            1 RES     
   18907 H6        -463.3506  -268.3400   533.2116 H6            1 RES     
   18908 H6        -464.3916  -266.3886   534.4173 H6            1 RES     
   18909 H6        -463.7942  -265.9199   532.7942 H6            1 RES     
   18910 H6        -462.8370  -265.4706   534.2552 H6            1 RES     
   18911 C0        -457.9605  -266.9026   555.0677 C0            1 RES     
   18912 C0        -457.8039  -267.5833   556.4279 C0            1 RES     
   18913 C0        -458.2539  -268.8607   556.3973 C0            1 RES     
   18914 S1        -458.0480  -269.6720   557.8467 S1            1 RES     
   18915 C0        -457.3297  -268.3182   558.5906 C0            1 RES     
   18916 C0        -457.2229  -267.2741   557.6561 C0            1 RES     
   18917 C0        -458.6230  -269.2013   555.0667 C0            1 RES     
   18918 C0        -458.4061  -268.1566   554.2997 C0            1 RES     
   18919 C0        -458.4976  -268.4994   552.8927 C0            1 RES     
   18920 C0        -458.8175  -269.8397   552.7375 C0            1 RES     
   18921 S1        -459.0463  -270.7448   554.2817 S1            1 RES     
   18922 H2        -456.6935  -266.3701   557.8694 H2            1 RES     
   18923 H2        -458.2118  -267.8623   552.0735 H2            1 RES     
   18924 N3        -456.2687  -266.8459   561.8915 N3            1 RES     
   18925 C0        -456.6922  -266.9720   560.6016 C0            1 RES     
   18926 C0        -456.8514  -268.2351   559.9968 C0            1 RES     
   18927 C0        -456.5654  -269.3593   560.7890 C0            1 RES     
   18928 N3        -456.6631  -270.6468   560.3624 N3            1 RES     
   18929 S1        -456.1785  -271.5023   561.6921 S1            1 RES     
   18930 N3        -455.8428  -270.3370   562.8134 N3            1 RES     
   18931 C0        -456.1157  -269.1976   562.1268 C0            1 RES     
   18932 C0        -455.9738  -267.9257   562.6660 C0            1 RES     
   18933 H4        -456.9379  -266.0791   560.0544 H4            1 RES     
   18934 C5        -451.5286  -264.0974   562.0095 C5            1 RES     
   18935 C5        -451.8438  -264.9796   560.8005 C5            1 RES     
   18936 C5        -453.3332  -264.9898   560.4130 C5            1 RES     
   18937 C5        -453.8864  -263.6118   559.9993 C5            1 RES     
   18938 C5        -455.3618  -263.7294   559.5793 C5            1 RES     
   18939 C5        -456.0286  -262.3635   559.3629 C5            1 RES     
   18940 C5        -457.5329  -262.4863   559.0224 C5            1 RES     
   18941 C5        -457.8495  -262.8477   557.5377 C5            1 RES     
   18942 C5        -458.6089  -264.1876   557.2902 C5            1 RES     
   18943 C5        -459.9940  -264.2229   557.9995 C5            1 RES     
   18944 C5        -460.4764  -265.6585   558.2790 C5            1 RES     
   18945 C5        -461.5355  -265.6905   559.4017 C5            1 RES     
   18946 C5        -461.7988  -267.1327   559.8712 C5            1 RES     
   18947 C5        -462.6102  -267.2099   561.1770 C5            1 RES     
   18948 C5        -464.0359  -266.6852   561.0480 C5            1 RES     
   18949 C5        -458.6690  -264.4170   555.7448 C5            1 RES     
   18950 C0        -459.0575  -265.7495   554.9956 C0            1 RES     
   18951 C5        -459.3494  -265.3049   553.4969 C5            1 RES     
   18952 C5        -460.8673  -265.2102   553.1263 C5            1 RES     
   18953 C5        -461.4883  -266.5716   552.6701 C5            1 RES     
   18954 C5        -461.0932  -267.0432   551.2509 C5            1 RES     
   18955 C5        -461.5674  -268.4652   550.8999 C5            1 RES     
   18956 C5        -463.0840  -268.6223   550.6792 C5            1 RES     
   18957 C5        -463.6609  -267.8109   549.4991 C5            1 RES     
   18958 C5        -463.0351  -268.1689   548.1470 C5            1 RES     
   18959 C5        -461.2041  -264.0319   552.1529 C5            1 RES     
   18960 C5        -460.2809  -263.8260   550.9241 C5            1 RES     
   18961 C5        -460.8242  -262.7818   549.9226 C5            1 RES     
   18962 C5        -461.0174  -261.3748   550.5197 C5            1 RES     
   18963 C5        -461.5498  -260.3464   549.5014 C5            1 RES     
   18964 C5        -460.5468  -260.0213   548.3775 C5            1 RES     
   18965 C5        -461.0791  -258.9961   547.3601 C5            1 RES     
   18966 C5        -461.3515  -257.6164   547.9612 C5            1 RES     
   18967 H6        -451.7341  -263.0304   561.7883 H6            1 RES     
   18968 H6        -450.4506  -264.1900   562.2610 H6            1 RES     
   18969 H6        -452.1256  -264.4159   562.8903 H6            1 RES     
   18970 H6        -451.2308  -264.6503   559.9348 H6            1 RES     
   18971 H6        -451.5508  -266.0224   561.0549 H6            1 RES     
   18972 H6        -453.4569  -265.6979   559.5650 H6            1 RES     
   18973 H6        -453.9212  -265.3777   561.2740 H6            1 RES     
   18974 H6        -453.2930  -263.1941   559.1568 H6            1 RES     
   18975 H6        -453.8157  -262.9234   560.8675 H6            1 RES     
   18976 H6        -455.4419  -264.3571   558.6661 H6            1 RES     
   18977 H6        -455.9038  -264.2112   560.4165 H6            1 RES     
   18978 H6        -455.9502  -261.8209   560.3312 H6            1 RES     
   18979 H6        -455.5029  -261.7600   558.5919 H6            1 RES     
   18980 H6        -457.9985  -263.1711   559.7596 H6            1 RES     
   18981 H6        -457.9828  -261.4855   559.1954 H6            1 RES     
   18982 H6        -456.8778  -262.8890   556.9959 H6            1 RES     
   18983 H6        -458.4195  -262.0138   557.0738 H6            1 RES     
   18984 H6        -457.9789  -264.8946   557.7817 H6            1 RES     
   18985 H6        -459.8640  -263.7709   558.9977 H6            1 RES     
   18986 H6        -460.7590  -263.6026   557.4842 H6            1 RES     
   18987 H6        -460.8287  -266.1573   557.3514 H6            1 RES     
   18988 H6        -459.6071  -266.2243   558.6750 H6            1 RES     
   18989 H6        -462.4715  -265.1885   559.0754 H6            1 RES     
   18990 H6        -461.1254  -265.1384   560.2765 H6            1 RES     
   18991 H6        -462.2892  -267.7180   559.0647 H6            1 RES     
   18992 H6        -460.8178  -267.6082   560.0968 H6            1 RES     
   18993 H6        -462.0821  -266.6451   561.9775 H6            1 RES     
   18994 H6        -462.6616  -268.2748   561.4919 H6            1 RES     
   18995 H6        -464.5874  -267.2642   560.2782 H6            1 RES     
   18996 H6        -464.0416  -265.6084   560.7830 H6            1 RES     
   18997 H6        -464.5557  -266.8047   562.0229 H6            1 RES     
   18998 H6        -457.6685  -264.1662   555.3272 H6            1 RES     
   18999 H6        -459.3723  -263.6221   555.4028 H6            1 RES     
   19000 H6        -458.9005  -264.3005   553.3470 H6            1 RES     
   19001 H6        -458.8015  -265.8783   552.7364 H6            1 RES     
   19002 H6        -461.4047  -264.9437   554.0654 H6            1 RES     
   19003 H6        -461.2045  -267.3440   553.4175 H6            1 RES     
   19004 H6        -462.5955  -266.4803   552.6882 H6            1 RES     
   19005 H6        -461.4842  -266.3544   550.4821 H6            1 RES     
   19006 H6        -459.9962  -267.0407   551.1711 H6            1 RES     
   19007 H6        -461.0474  -268.7908   549.9746 H6            1 RES     
   19008 H6        -461.2473  -269.1587   551.7035 H6            1 RES     
   19009 H6        -463.6239  -268.3437   551.6078 H6            1 RES     
   19010 H6        -463.2876  -269.6983   550.4840 H6            1 RES     
   19011 H6        -463.5480  -266.7221   549.6784 H6            1 RES     
   19012 H6        -464.7493  -268.0274   549.4380 H6            1 RES     
   19013 H6        -463.1549  -269.2531   547.9372 H6            1 RES     
   19014 H6        -463.5402  -267.5956   547.3411 H6            1 RES     
   19015 H6        -461.9580  -267.9052   548.1194 H6            1 RES     
   19016 H6        -461.1334  -263.0933   552.7425 H6            1 RES     
   19017 H6        -462.2634  -264.1409   551.8331 H6            1 RES     
   19018 H6        -460.1441  -264.7520   550.3477 H6            1 RES     
   19019 H6        -459.2719  -263.5136   551.2599 H6            1 RES     
   19020 H6        -460.0962  -262.7337   549.0868 H6            1 RES     
   19021 H6        -461.7952  -263.1403   549.5154 H6            1 RES     
   19022 H6        -460.0618  -261.0072   550.9521 H6            1 RES     
   19023 H6        -461.7700  -261.4377   551.3331 H6            1 RES     
   19024 H6        -462.5041  -260.7152   549.0650 H6            1 RES     
   19025 H6        -461.7632  -259.4157   550.0667 H6            1 RES     
   19026 H6        -460.3187  -260.9446   547.8075 H6            1 RES     
   19027 H6        -459.6007  -259.6408   548.8209 H6            1 RES     
   19028 H6        -460.3114  -258.8733   546.5650 H6            1 RES     
   19029 H6        -462.0073  -259.3822   546.8859 H6            1 RES     
   19030 H6        -462.1617  -257.6588   548.7166 H6            1 RES     
   19031 H6        -461.6765  -256.9235   547.1562 H6            1 RES     
   19032 H6        -460.4295  -257.2095   548.4275 H6            1 RES     
   19033 C0        -453.4378  -265.9799   566.6809 C0            1 RES     
   19034 C0        -453.3269  -267.0441   567.7732 C0            1 RES     
   19035 C0        -454.1750  -268.0761   567.5473 C0            1 RES     
   19036 S1        -454.0489  -269.2996   568.6825 S1            1 RES     
   19037 C0        -452.8253  -268.4820   569.5405 C0            1 RES     
   19038 C0        -452.5101  -267.2843   568.8763 C0            1 RES     
   19039 C0        -454.8188  -267.8942   566.2923 C0            1 RES     
   19040 C0        -454.3773  -266.7760   565.7620 C0            1 RES     
   19041 C0        -454.7737  -266.6518   564.3716 C0            1 RES     
   19042 C0        -455.5387  -267.7414   563.9838 C0            1 RES     
   19043 S1        -455.8361  -268.9561   565.2847 S1            1 RES     
   19044 H2        -451.6863  -266.6694   569.1700 H2            1 RES     
   19045 H2        -454.4105  -265.9102   563.6812 H2            1 RES     
   19046 N3        -450.8840  -268.4008   572.7676 N3            1 RES     
   19047 C0        -451.5018  -268.0194   571.6134 C0            1 RES     
   19048 C0        -452.1544  -268.9521   570.7822 C0            1 RES     
   19049 C0        -452.1496  -270.2918   571.2046 C0            1 RES     
   19050 N3        -452.7278  -271.3161   570.5224 N3            1 RES     
   19051 S1        -452.3733  -272.6234   571.4712 S1            1 RES     
   19052 N3        -451.5161  -271.9809   572.7283 N3            1 RES     
   19053 C0        -451.4888  -270.6620   572.4065 C0            1 RES     
   19054 C0        -450.8588  -269.6972   573.1815 C0            1 RES     
   19055 H4        -451.5113  -266.9741   571.3597 H4            1 RES     
   19056 C5        -445.5336  -267.2561   572.4534 C5            1 RES     
   19057 C5        -446.2898  -267.6200   571.1747 C5            1 RES     
   19058 C5        -447.7370  -267.0971   571.1413 C5            1 RES     
   19059 C5        -447.8537  -265.5611   571.1964 C5            1 RES     
   19060 C5        -449.3279  -265.1307   571.1040 C5            1 RES     
   19061 C5        -449.5268  -263.6316   571.3685 C5            1 RES     
   19062 C5        -451.0187  -263.2211   571.3567 C5            1 RES     
   19063 C5        -451.6421  -263.0280   569.9392 C5            1 RES     
   19064 C5        -452.8299  -263.9666   569.5633 C5            1 RES     
   19065 C5        -454.0343  -263.8169   570.5379 C5            1 RES     
   19066 C5        -454.9216  -265.0752   570.5757 C5            1 RES     
   19067 C5        -455.7628  -265.1352   571.8687 C5            1 RES     
   19068 C5        -456.4212  -266.5166   572.0353 C5            1 RES     
   19069 C5        -457.0206  -266.7411   573.4352 C5            1 RES     
   19070 C5        -458.1945  -265.8229   573.7569 C5            1 RES     
   19071 C5        -453.1788  -263.7071   568.0614 C5            1 RES     
   19072 C0        -454.0885  -264.5965   567.1290 C0            1 RES     
   19073 C5        -454.4233  -263.6695   565.8811 C5            1 RES     
   19074 C5        -455.8599  -263.0477   565.8946 C5            1 RES     
   19075 C5        -456.9550  -263.9838   565.2850 C5            1 RES     
   19076 C5        -456.9418  -264.1106   563.7434 C5            1 RES     
   19077 C5        -457.9054  -265.1742   563.1862 C5            1 RES     
   19078 C5        -459.4032  -264.8268   563.2824 C5            1 RES     
   19079 C5        -459.8376  -263.5776   562.4855 C5            1 RES     
   19080 C5        -459.5621  -263.6851   560.9821 C5            1 RES     
   19081 C5        -455.9194  -261.5913   565.3249 C5            1 RES     
   19082 C5        -455.1622  -261.3031   564.0028 C5            1 RES     
   19083 C5        -455.4628  -259.9029   563.4217 C5            1 RES     
   19084 C5        -455.0924  -258.7374   564.3586 C5            1 RES     
   19085 C5        -455.3904  -257.3498   563.7555 C5            1 RES     
   19086 C5        -454.5045  -257.0058   562.5424 C5            1 RES     
   19087 C5        -454.8034  -255.6214   561.9394 C5            1 RES     
   19088 C5        -454.5153  -254.4597   562.8916 C5            1 RES     
   19089 H6        -445.4021  -266.1585   572.5396 H6            1 RES     
   19090 H6        -444.5234  -267.7175   572.4268 H6            1 RES     
   19091 H6        -446.0727  -267.6371   573.3466 H6            1 RES     
   19092 H6        -445.7301  -267.2381   570.2947 H6            1 RES     
   19093 H6        -446.3270  -268.7299   571.1058 H6            1 RES     
   19094 H6        -448.2062  -267.4613   570.2017 H6            1 RES     
   19095 H6        -448.2935  -267.5383   571.9975 H6            1 RES     
   19096 H6        -447.2797  -265.0997   570.3634 H6            1 RES     
   19097 H6        -447.4375  -265.2058   572.1625 H6            1 RES     
   19098 H6        -449.7390  -265.4147   570.1117 H6            1 RES     
   19099 H6        -449.8760  -265.6637   571.9055 H6            1 RES     
   19100 H6        -449.1379  -263.4411   572.3935 H6            1 RES     
   19101 H6        -448.9443  -263.0022   570.6618 H6            1 RES     
   19102 H6        -451.5769  -263.9318   571.9990 H6            1 RES     
   19103 H6        -451.0820  -262.2307   571.8554 H6            1 RES     
   19104 H6        -450.8254  -263.1805   569.1983 H6            1 RES     
   19105 H6        -451.9621  -261.9698   569.8236 H6            1 RES     
   19106 H6        -452.4079  -264.9338   569.7212 H6            1 RES     
   19107 H6        -453.6230  -263.7325   571.5584 H6            1 RES     
   19108 H6        -454.6143  -262.8841   570.3677 H6            1 RES     
   19109 H6        -455.5458  -265.1605   569.6612 H6            1 RES     
   19110 H6        -454.2429  -265.9526   570.6224 H6            1 RES     
   19111 H6        -456.5150  -264.3177   571.8882 H6            1 RES     
   19112 H6        -455.0743  -265.0018   572.7328 H6            1 RES     
   19113 H6        -457.1860  -266.6776   571.2463 H6            1 RES     
   19114 H6        -455.6323  -267.2930   571.9167 H6            1 RES     
   19115 H6        -456.2283  -266.6077   574.2054 H6            1 RES     
   19116 H6        -457.3779  -267.7921   573.4960 H6            1 RES     
   19117 H6        -459.0091  -265.9718   573.0178 H6            1 RES     
   19118 H6        -457.8796  -264.7596   573.7591 H6            1 RES     
   19119 H6        -458.5824  -266.0712   574.7683 H6            1 RES     
   19120 H6        -452.2208  -263.6371   567.4996 H6            1 RES     
   19121 H6        -453.6190  -262.6828   568.0820 H6            1 RES     
   19122 H6        -453.6922  -262.8339   565.8727 H6            1 RES     
   19123 H6        -454.2092  -264.1250   564.9044 H6            1 RES     
   19124 H6        -456.1410  -262.9278   566.9662 H6            1 RES     
   19125 H6        -456.8418  -264.9882   565.7476 H6            1 RES     
   19126 H6        -457.9549  -263.5943   565.5728 H6            1 RES     
   19127 H6        -457.1858  -263.1462   563.2652 H6            1 RES     
   19128 H6        -455.9289  -264.3934   563.4214 H6            1 RES     
   19129 H6        -457.6581  -265.3472   562.1178 H6            1 RES     
   19130 H6        -457.7243  -266.1332   563.7122 H6            1 RES     
   19131 H6        -459.6842  -264.6921   564.3474 H6            1 RES     
   19132 H6        -459.9776  -265.6958   562.8923 H6            1 RES     
   19133 H6        -459.3458  -262.6667   562.8840 H6            1 RES     
   19134 H6        -460.9333  -263.4515   562.6224 H6            1 RES     
   19135 H6        -460.0632  -264.5810   560.5574 H6            1 RES     
   19136 H6        -459.9561  -262.7833   560.4674 H6            1 RES     
   19137 H6        -458.4737  -263.7389   560.7749 H6            1 RES     
   19138 H6        -455.4593  -260.9259   566.0859 H6            1 RES     
   19139 H6        -456.9886  -261.2994   565.2356 H6            1 RES     
   19140 H6        -455.4227  -262.0192   563.2105 H6            1 RES     
   19141 H6        -454.0701  -261.3995   564.1660 H6            1 RES     
   19142 H6        -454.8849  -259.8190   562.4783 H6            1 RES     
   19143 H6        -456.5447  -259.8383   563.1715 H6            1 RES     
   19144 H6        -454.0183  -258.7967   564.6382 H6            1 RES     
   19145 H6        -455.7013  -258.8212   565.2829 H6            1 RES     
   19146 H6        -456.4643  -257.2908   563.4715 H6            1 RES     
   19147 H6        -455.2014  -256.6046   564.5557 H6            1 RES     
   19148 H6        -454.6781  -257.7470   561.7363 H6            1 RES     
   19149 H6        -453.4335  -257.0538   562.8375 H6            1 RES     
   19150 H6        -454.1580  -255.4924   561.0431 H6            1 RES     
   19151 H6        -455.8639  -255.5746   561.6098 H6            1 RES     
   19152 H6        -455.1793  -254.4918   563.7787 H6            1 RES     
   19153 H6        -454.7014  -253.4995   562.3651 H6            1 RES     
   19154 H6        -453.4549  -254.4836   563.2200 H6            1 RES     
   19155 C0        -447.2843  -269.8068   576.8624 C0            1 RES     
   19156 C0        -447.3810  -271.1303   577.6220 C0            1 RES     
   19157 C0        -448.5463  -271.7688   577.3584 C0            1 RES     
   19158 S1        -448.6756  -273.2547   578.1180 S1            1 RES     
   19159 C0        -447.1425  -273.1026   578.8449 C0            1 RES     
   19160 C0        -446.5441  -271.9022   578.4254 C0            1 RES     
   19161 C0        -449.2625  -271.0543   576.3588 C0            1 RES     
   19162 C0        -448.5538  -270.0013   576.0189 C0            1 RES     
   19163 C0        -449.0773  -269.3695   574.8220 C0            1 RES     
   19164 C0        -450.2070  -270.0367   574.3731 C0            1 RES     
   19165 S1        -450.7051  -271.4439   575.3869 S1            1 RES     
   19166 H2        -445.5303  -271.6579   578.6612 H2            1 RES     
   19167 H2        -448.5892  -268.5917   574.2604 H2            1 RES     
   19168 N3        -444.8522  -274.5186   581.4791 N3            1 RES     
   19169 C0        -445.4637  -273.6586   580.6155 C0            1 RES     
   19170 C0        -446.4985  -274.0842   579.7585 C0            1 RES     
   19171 C0        -446.8795  -275.4336   579.8441 C0            1 RES     
   19172 N3        -447.8545  -276.0076   579.0898 N3            1 RES     
   19173 S1        -447.8247  -277.5797   579.6020 S1            1 RES     
   19174 N3        -446.6356  -277.6014   580.7481 N3            1 RES     
   19175 C0        -446.2175  -276.3094   580.7456 C0            1 RES     
   19176 C0        -445.2009  -275.8316   581.5621 C0            1 RES     
   19177 H4        -445.1612  -272.6263   580.6219 H4            1 RES     
   19178 C5        -439.5252  -274.8850   580.2439 C5            1 RES     
   19179 C5        -440.5308  -274.6307   579.1198 C5            1 RES     
   19180 C5        -441.7118  -273.7362   579.5363 C5            1 RES     
   19181 C5        -441.3032  -272.3156   579.9734 C5            1 RES     
   19182 C5        -442.5484  -271.4807   580.3187 C5            1 RES     
   19183 C5        -442.1994  -270.1320   580.9638 C5            1 RES     
   19184 C5        -443.4565  -269.3339   581.3845 C5            1 RES     
   19185 C5        -444.1727  -268.5674   580.2293 C5            1 RES     
   19186 C5        -445.6449  -268.9811   579.9220 C5            1 RES     
   19187 C5        -446.5821  -268.7909   581.1503 C5            1 RES     
   19188 C5        -447.8221  -269.7024   581.0920 C5            1 RES     
   19189 C5        -448.4454  -269.8991   582.4905 C5            1 RES     
   19190 C5        -449.4948  -271.0253   582.4738 C5            1 RES     
   19191 C5        -449.9322  -271.4715   583.8806 C5            1 RES     
   19192 C5        -450.6774  -270.3964   584.6637 C5            1 RES     
   19193 C5        -446.0948  -268.2064   578.6407 C5            1 RES     
   19194 C0        -447.3694  -268.4906   577.7559 C0            1 RES     
   19195 C5        -447.5490  -267.1840   576.8675 C5            1 RES     
   19196 C5        -448.6808  -266.2157   577.3490 C5            1 RES     
   19197 C5        -450.0985  -266.5850   576.8005 C5            1 RES     
   19198 C5        -450.3445  -266.2534   575.3098 C5            1 RES     
   19199 C5        -451.6744  -266.7915   574.7513 C5            1 RES     
   19200 C5        -452.9429  -266.0809   575.2609 C5            1 RES     
   19201 C5        -453.0452  -264.5839   574.8967 C5            1 RES     
   19202 C5        -453.0347  -264.3197   573.3875 C5            1 RES     
   19203 C5        -448.3328  -264.7012   577.1637 C5            1 RES     
   19204 C5        -447.7162  -264.2638   575.8099 C5            1 RES     
   19205 C5        -447.6134  -262.7295   575.6550 C5            1 RES     
   19206 C5        -446.7496  -262.0427   576.7299 C5            1 RES     
   19207 C5        -446.6517  -260.5142   576.5507 C5            1 RES     
   19208 C5        -445.8811  -260.0939   575.2840 C5            1 RES     
   19209 C5        -445.7851  -258.5681   575.1043 C5            1 RES     
   19210 C5        -444.9973  -257.8661   576.2114 C5            1 RES     
   19211 H6        -439.0262  -273.9440   580.5522 H6            1 RES     
   19212 H6        -438.7397  -275.5829   579.8834 H6            1 RES     
   19213 H6        -440.0293  -275.3430   581.1213 H6            1 RES     
   19214 H6        -440.0052  -274.1815   578.2505 H6            1 RES     
   19215 H6        -440.9434  -275.6145   578.8038 H6            1 RES     
   19216 H6        -442.4022  -273.6621   578.6682 H6            1 RES     
   19217 H6        -442.2574  -274.2334   580.3686 H6            1 RES     
   19218 H6        -440.7314  -271.8115   579.1640 H6            1 RES     
   19219 H6        -440.6615  -272.3906   580.8765 H6            1 RES     
   19220 H6        -443.1653  -271.3342   579.4063 H6            1 RES     
   19221 H6        -443.1242  -272.0482   581.0758 H6            1 RES     
   19222 H6        -441.6297  -270.3672   581.8902 H6            1 RES     
   19223 H6        -441.5462  -269.5138   580.3111 H6            1 RES     
   19224 H6        -444.1231  -270.0144   581.9518 H6            1 RES     
   19225 H6        -443.1169  -268.5568   582.1019 H6            1 RES     
   19226 H6        -443.5653  -268.7195   579.3089 H6            1 RES     
   19227 H6        -444.1362  -267.4764   580.4392 H6            1 RES     
   19228 H6        -445.5502  -270.0300   579.7504 H6            1 RES     
   19229 H6        -446.0273  -269.1280   582.0426 H6            1 RES     
   19230 H6        -446.8374  -267.7255   581.3378 H6            1 RES     
   19231 H6        -448.5610  -269.3373   580.3476 H6            1 RES     
   19232 H6        -447.4737  -270.7088   580.7783 H6            1 RES     
   19233 H6        -448.8731  -268.9461   582.8694 H6            1 RES     
   19234 H6        -447.6378  -270.2237   583.1839 H6            1 RES     
   19235 H6        -450.3722  -270.7264   581.8622 H6            1 RES     
   19236 H6        -449.0332  -271.9220   582.0026 H6            1 RES     
   19237 H6        -449.0408  -271.7978   584.4617 H6            1 RES     
   19238 H6        -450.6057  -272.3494   583.7730 H6            1 RES     
   19239 H6        -451.5903  -270.0871   584.1133 H6            1 RES     
   19240 H6        -450.0304  -269.5138   584.8431 H6            1 RES     
   19241 H6        -450.9798  -270.8102   585.6498 H6            1 RES     
   19242 H6        -445.2567  -268.2474   577.9098 H6            1 RES     
   19243 H6        -446.1627  -267.1525   578.9985 H6            1 RES     
   19244 H6        -446.5908  -266.6235   576.8900 H6            1 RES     
   19245 H6        -447.6374  -267.3747   575.7890 H6            1 RES     
   19246 H6        -448.7530  -266.3407   578.4540 H6            1 RES     
   19247 H6        -450.2614  -267.6701   576.9780 H6            1 RES     
   19248 H6        -450.8617  -266.0321   577.3889 H6            1 RES     
   19249 H6        -450.3190  -265.1635   575.1376 H6            1 RES     
   19250 H6        -449.5386  -266.7025   574.7110 H6            1 RES     
   19251 H6        -451.6510  -266.7065   573.6446 H6            1 RES     
   19252 H6        -451.7501  -267.8728   574.9841 H6            1 RES     
   19253 H6        -453.0110  -266.1905   576.3630 H6            1 RES     
   19254 H6        -453.8218  -266.5995   574.8183 H6            1 RES     
   19255 H6        -452.2283  -264.0064   575.3756 H6            1 RES     
   19256 H6        -454.0063  -264.2007   575.3025 H6            1 RES     
   19257 H6        -453.8590  -264.8733   572.8894 H6            1 RES     
   19258 H6        -453.1751  -263.2341   573.2000 H6            1 RES     
   19259 H6        -452.0663  -264.6143   572.9338 H6            1 RES     
   19260 H6        -447.5761  -264.4451   577.9353 H6            1 RES     
   19261 H6        -449.2459  -264.1076   577.3883 H6            1 RES     
   19262 H6        -448.3080  -264.6132   574.9519 H6            1 RES     
   19263 H6        -446.7066  -264.7068   575.6958 H6            1 RES     
   19264 H6        -447.1787  -262.5394   574.6521 H6            1 RES     
   19265 H6        -448.6363  -262.2931   575.6771 H6            1 RES     
   19266 H6        -445.7282  -262.4807   576.7386 H6            1 RES     
   19267 H6        -447.2159  -262.2186   577.7218 H6            1 RES     
   19268 H6        -447.6736  -260.0752   576.5378 H6            1 RES     
   19269 H6        -446.1158  -260.1204   577.4390 H6            1 RES     
   19270 H6        -446.4021  -260.4866   574.3875 H6            1 RES     
   19271 H6        -444.8566  -260.5253   575.3107 H6            1 RES     
   19272 H6        -445.2658  -258.3694   574.1413 H6            1 RES     
   19273 H6        -446.8050  -258.1307   575.0424 H6            1 RES     
   19274 H6        -445.5029  -257.9683   577.1926 H6            1 RES     
   19275 H6        -444.9260  -256.7822   575.9796 H6            1 RES     
   19276 H6        -443.9699  -258.2822   576.2775 H6            1 RES     
   19277 C0        -441.3868  -278.0141   584.2130 C0            1 RES     
   19278 C0        -441.8097  -279.4188   584.6442 C0            1 RES     
   19279 C0        -443.1456  -279.5976   584.5082 C0            1 RES     
   19280 S1        -443.6529  -281.1415   584.9088 S1            1 RES     
   19281 C0        -442.0704  -281.6463   585.2865 C0            1 RES     
   19282 C0        -441.1726  -280.5947   585.0353 C0            1 RES     
   19283 C0        -443.7167  -278.4506   583.8910 C0            1 RES     
   19284 C0        -442.7538  -277.5880   583.6557 C0            1 RES     
   19285 C0        -443.2003  -276.5131   582.7891 C0            1 RES     
   19286 C0        -444.5384  -276.6739   582.4631 C0            1 RES     
   19287 S1        -445.3281  -278.1166   583.2056 S1            1 RES     
   19288 H2        -440.1128  -280.7255   585.0870 H2            1 RES     
   19289 H2        -442.5655  -275.7752   582.3295 H2            1 RES     
   19290 N3        -440.0345  -284.3553   586.9316 N3            1 RES     
   19291 C0        -440.4406  -283.1446   586.4534 C0            1 RES     
   19292 C0        -441.6674  -282.9919   585.7764 C0            1 RES     
   19293 C0        -442.4587  -284.1431   585.6280 C0            1 RES     
   19294 N3        -443.6644  -284.1727   585.0001 N3            1 RES     
   19295 S1        -444.0865  -285.7678   585.1108 S1            1 RES     
   19296 N3        -442.8238  -286.4574   585.9219 N3            1 RES     
   19297 C0        -442.0054  -285.3935   586.1271 C0            1 RES     
   19298 C0        -440.7839  -285.4816   586.7820 C0            1 RES     
   19299 H4        -439.8150  -282.2881   586.6323 H4            1 RES     
   19300 C5        -435.3601  -285.8266   584.4777 C5            1 RES     
   19301 C5        -436.3714  -284.9826   583.7003 C5            1 RES     
   19302 C5        -437.1178  -283.9548   584.5692 C5            1 RES     
   19303 C5        -436.2038  -282.8993   585.2224 C5            1 RES     
   19304 C5        -437.0400  -281.8871   586.0245 C5            1 RES     
   19305 C5        -436.1763  -280.9414   586.8711 C5            1 RES     
   19306 C5        -437.0251  -279.9816   587.7386 C5            1 RES     
   19307 C5        -437.6007  -278.7416   586.9863 C5            1 RES     
   19308 C5        -439.1545  -278.6158   586.9306 C5            1 RES     
   19309 C5        -439.7934  -278.5378   588.3479 C5            1 RES     
   19310 C5        -441.2608  -279.0052   588.3592 C5            1 RES     
   19311 C5        -441.7114  -279.4189   589.7766 C5            1 RES     
   19312 C5        -443.0664  -280.1482   589.7342 C5            1 RES     
   19313 C5        -443.4253  -280.8447   591.0591 C5            1 RES     
   19314 C5        -443.6538  -279.8817   592.2189 C5            1 RES     
   19315 C5        -439.4967  -277.4063   586.0009 C5            1 RES     
   19316 C0        -440.9040  -277.0487   585.3848 C0            1 RES     
   19317 C5        -440.7625  -275.5441   584.8900 C5            1 RES     
   19318 C5        -441.4294  -274.4818   585.8266 C5            1 RES     
   19319 C5        -442.9513  -274.2601   585.5409 C5            1 RES     
   19320 C5        -443.2797  -273.4517   584.2636 C5            1 RES     
   19321 C5        -444.7772  -273.4060   583.9094 C5            1 RES     
   19322 C5        -445.6532  -272.5490   584.8430 C5            1 RES     
   19323 C5        -445.3029  -271.0455   584.8712 C5            1 RES     
   19324 C5        -445.4170  -270.3653   583.5030 C5            1 RES     
   19325 C5        -440.6281  -273.1412   585.9267 C5            1 RES     
   19326 C5        -440.0975  -272.5187   584.6093 C5            1 RES     
   19327 C5        -439.5141  -271.1000   584.7980 C5            1 RES     
   19328 C5        -438.3297  -271.0297   585.7806 C5            1 RES     
   19329 C5        -437.7561  -269.6078   585.9460 C5            1 RES     
   19330 C5        -437.0754  -269.0697   584.6724 C5            1 RES     
   19331 C5        -436.5046  -267.6497   584.8371 C5            1 RES     
   19332 C5        -435.3815  -267.5535   585.8708 C5            1 RES     
   19333 H6        -434.5391  -285.1972   584.8766 H6            1 RES     
   19334 H6        -434.9096  -286.5799   583.7968 H6            1 RES     
   19335 H6        -435.8594  -286.3602   585.3142 H6            1 RES     
   19336 H6        -435.8539  -284.4654   582.8646 H6            1 RES     
   19337 H6        -437.1271  -285.6732   583.2646 H6            1 RES     
   19338 H6        -437.8589  -283.4389   583.9209 H6            1 RES     
   19339 H6        -437.6750  -284.4993   585.3632 H6            1 RES     
   19340 H6        -435.6166  -282.3625   584.4457 H6            1 RES     
   19341 H6        -435.5036  -283.4125   585.9146 H6            1 RES     
   19342 H6        -437.6947  -281.3128   585.3347 H6            1 RES     
   19343 H6        -437.6593  -282.4654   586.7378 H6            1 RES     
   19344 H6        -435.5930  -281.5877   587.5641 H6            1 RES     
   19345 H6        -435.4533  -280.3691   586.2510 H6            1 RES     
   19346 H6        -437.7932  -280.5821   588.2665 H6            1 RES     
   19347 H6        -436.3498  -279.5768   588.5221 H6            1 RES     
   19348 H6        -437.2136  -278.7820   585.9433 H6            1 RES     
   19349 H6        -437.1751  -277.8161   587.4314 H6            1 RES     
   19350 H6        -439.4383  -279.5508   586.5020 H6            1 RES     
   19351 H6        -439.2626  -279.2630   588.9883 H6            1 RES     
   19352 H6        -439.6516  -277.5472   588.8317 H6            1 RES     
   19353 H6        -441.9332  -278.2459   587.9069 H6            1 RES     
   19354 H6        -441.3138  -279.9311   587.7491 H6            1 RES     
   19355 H6        -441.7409  -278.5386   590.4538 H6            1 RES     
   19356 H6        -440.9686  -280.1456   590.1747 H6            1 RES     
   19357 H6        -443.8715  -279.4494   589.4231 H6            1 RES     
   19358 H6        -442.9995  -280.9596   588.9750 H6            1 RES     
   19359 H6        -442.6206  -281.5636   591.3318 H6            1 RES     
   19360 H6        -444.3601  -281.4262   590.9041 H6            1 RES     
   19361 H6        -444.4799  -279.1813   591.9761 H6            1 RES     
   19362 H6        -442.7322  -279.3095   592.4490 H6            1 RES     
   19363 H6        -443.9350  -280.4635   593.1230 H6            1 RES     
   19364 H6        -438.8309  -277.4656   585.1112 H6            1 RES     
   19365 H6        -439.1600  -276.5287   586.6008 H6            1 RES     
   19366 H6        -439.6795  -275.3078   584.8264 H6            1 RES     
   19367 H6        -441.0595  -275.3779   583.8452 H6            1 RES     
   19368 H6        -441.3833  -274.8990   586.8589 H6            1 RES     
   19369 H6        -443.4386  -275.2580   585.4920 H6            1 RES     
   19370 H6        -443.3972  -273.7123   586.3985 H6            1 RES     
   19371 H6        -442.9184  -272.4123   584.3497 H6            1 RES     
   19372 H6        -442.7610  -273.9135   583.4108 H6            1 RES     
   19373 H6        -444.8824  -273.0111   582.8771 H6            1 RES     
   19374 H6        -445.1741  -274.4411   583.8940 H6            1 RES     
   19375 H6        -445.5986  -272.9525   585.8753 H6            1 RES     
   19376 H6        -446.7073  -272.6463   584.5013 H6            1 RES     
   19377 H6        -444.2820  -270.8875   585.2750 H6            1 RES     
   19378 H6        -446.0153  -270.5437   585.5610 H6            1 RES     
   19379 H6        -446.4395  -270.4937   583.0883 H6            1 RES     
   19380 H6        -445.2139  -269.2788   583.6109 H6            1 RES     
   19381 H6        -444.6750  -270.7741   582.7869 H6            1 RES     
   19382 H6        -439.7290  -273.3457   586.5458 H6            1 RES     
   19383 H6        -441.2513  -272.4077   586.4834 H6            1 RES     
   19384 H6        -440.8858  -272.4205   583.8494 H6            1 RES     
   19385 H6        -439.3188  -273.1741   584.1705 H6            1 RES     
   19386 H6        -439.1861  -270.7549   583.7958 H6            1 RES     
   19387 H6        -440.3203  -270.4199   585.1513 H6            1 RES     
   19388 H6        -437.5210  -271.7198   585.4564 H6            1 RES     
   19389 H6        -438.6839  -271.3496   586.7827 H6            1 RES     
   19390 H6        -438.5655  -268.9155   586.2665 H6            1 RES     
   19391 H6        -437.0010  -269.6586   586.7575 H6            1 RES     
   19392 H6        -437.8174  -269.0198   583.8501 H6            1 RES     
   19393 H6        -436.2592  -269.7599   584.3661 H6            1 RES     
   19394 H6        -436.0893  -267.3323   583.8557 H6            1 RES     
   19395 H6        -437.3196  -266.9449   585.1105 H6            1 RES     
   19396 H6        -435.7495  -267.7919   586.8889 H6            1 RES     
   19397 H6        -434.9877  -266.5151   585.8887 H6            1 RES     
   19398 H6        -434.5520  -268.2421   585.6048 H6            1 RES     
   19399 C0        -437.5787  -289.3245   587.9206 C0            1 RES     
   19400 C0        -438.3790  -290.6156   588.0956 C0            1 RES     
   19401 C0        -439.7036  -290.3635   588.2262 C0            1 RES     
   19402 S1        -440.6331  -291.7492   588.3588 S1            1 RES     
   19403 C0        -439.2714  -292.7661   588.2417 C0            1 RES     
   19404 C0        -438.1202  -291.9839   588.0474 C0            1 RES     
   19405 C0        -439.9422  -288.9741   588.0388 C0            1 RES     
   19406 C0        -438.7907  -288.3876   587.8009 C0            1 RES     
   19407 C0        -438.9719  -287.0261   587.3328 C0            1 RES     
   19408 C0        -440.3192  -286.7013   587.2883 C0            1 RES     
   19409 S1        -441.4306  -288.0151   587.8315 S1            1 RES     
   19410 H2        -437.1676  -292.4165   587.8271 H2            1 RES     
   19411 H2        -438.1993  -286.3957   586.9274 H2            1 RES     
   19412 N3        -438.0407  -296.2958   588.7064 N3            1 RES     
   19413 C0        -438.0848  -294.9352   588.6283 C0            1 RES     
   19414 C0        -439.2734  -294.2525   588.3000 C0            1 RES     
   19415 C0        -440.4144  -295.0387   588.0690 C0            1 RES     
   19416 N3        -441.6371  -294.5430   587.7398 N3            1 RES     
   19417 S1        -442.5447  -295.9146   587.5670 S1            1 RES     
   19418 N3        -441.4820  -297.1372   587.8888 N3            1 RES     
   19419 C0        -440.3366  -296.4550   588.1470 C0            1 RES     
   19420 C0        -439.1346  -297.0707   588.4707 C0            1 RES     
   19421 H4        -437.1918  -294.3807   588.8567 H4            1 RES     
   19422 C5        -434.5127  -298.2368   584.9887 C5            1 RES     
   19423 C5        -435.2849  -296.9536   584.6783 C5            1 RES     
   19424 C5        -435.5182  -296.0586   585.9084 C5            1 RES     
   19425 C5        -434.2237  -295.5421   586.5669 C5            1 RES     
   19426 C5        -434.5553  -294.6166   587.7503 C5            1 RES     
   19427 C5        -433.3170  -294.2429   588.5774 C5            1 RES     
   19428 C5        -433.6686  -293.3809   589.8134 C5            1 RES     
   19429 C5        -433.8995  -291.8655   589.5210 C5            1 RES     
   19430 C5        -435.3150  -291.2974   589.8478 C5            1 RES     
   19431 C5        -435.6864  -291.4612   591.3505 C5            1 RES     
   19432 C5        -437.2088  -291.4790   591.5826 C5            1 RES     
   19433 C5        -437.5678  -292.1452   592.9282 C5            1 RES     
   19434 C5        -439.0798  -292.4183   593.0229 C5            1 RES     
   19435 C5        -439.4600  -293.3417   594.1943 C5            1 RES     
   19436 C5        -439.1909  -292.7367   595.5677 C5            1 RES     
   19437 C5        -435.3632  -289.8237   589.3279 C5            1 RES     
   19438 C0        -436.6437  -288.9209   589.1456 C0            1 RES     
   19439 C5        -436.0816  -287.4407   588.9971 C5            1 RES     
   19440 C5        -436.2198  -286.5564   590.2814 C5            1 RES     
   19441 C5        -437.6061  -285.8422   590.4058 C5            1 RES     
   19442 C5        -437.8232  -284.6372   589.4604 C5            1 RES     
   19443 C5        -439.2546  -284.0707   589.4733 C5            1 RES     
   19444 C5        -439.6564  -283.3144   590.7539 C5            1 RES     
   19445 C5        -438.8266  -282.0470   591.0528 C5            1 RES     
   19446 C5        -438.8992  -280.9929   589.9432 C5            1 RES     
   19447 C5        -435.0134  -285.5857   590.5087 C5            1 RES     
   19448 C5        -434.4965  -284.7805   589.2884 C5            1 RES     
   19449 C5        -433.4550  -283.7032   589.6668 C5            1 RES     
   19450 C5        -432.1890  -284.2595   590.3459 C5            1 RES     
   19451 C5        -431.1589  -283.1696   590.7052 C5            1 RES     
   19452 C5        -430.5239  -282.4966   589.4729 C5            1 RES     
   19453 C5        -429.4970  -281.4075   589.8317 C5            1 RES     
   19454 C5        -428.2725  -281.9378   590.5789 C5            1 RES     
   19455 H6        -433.4819  -298.0092   585.3281 H6            1 RES     
   19456 H6        -434.4379  -298.8527   584.0672 H6            1 RES     
   19457 H6        -435.0382  -298.8289   585.7677 H6            1 RES     
   19458 H6        -434.7477  -296.3819   583.8920 H6            1 RES     
   19459 H6        -436.2802  -297.2447   584.2752 H6            1 RES     
   19460 H6        -436.1292  -295.1890   585.5826 H6            1 RES     
   19461 H6        -436.1074  -296.6320   586.6578 H6            1 RES     
   19462 H6        -433.6067  -294.9893   585.8253 H6            1 RES     
   19463 H6        -433.6438  -296.4106   586.9440 H6            1 RES     
   19464 H6        -435.0722  -293.7057   587.3794 H6            1 RES     
   19465 H6        -435.2250  -295.1797   588.4295 H6            1 RES     
   19466 H6        -432.8902  -295.2004   588.9506 H6            1 RES     
   19467 H6        -432.5396  -293.7416   587.9616 H6            1 RES     
   19468 H6        -434.5105  -293.8682   590.3454 H6            1 RES     
   19469 H6        -432.7945  -293.4301   590.4969 H6            1 RES     
   19470 H6        -433.6981  -291.7061   588.4378 H6            1 RES     
   19471 H6        -433.1330  -291.2697   590.0623 H6            1 RES     
   19472 H6        -435.9502  -291.9467   589.2879 H6            1 RES     
   19473 H6        -435.3422  -292.4607   591.6673 H6            1 RES     
   19474 H6        -435.1575  -290.7372   592.0075 H6            1 RES     
   19475 H6        -437.6475  -290.4636   591.4836 H6            1 RES     
   19476 H6        -437.6511  -292.1318   590.8011 H6            1 RES     
   19477 H6        -437.2082  -291.5305   593.7810 H6            1 RES     
   19478 H6        -437.0601  -293.1347   592.9677 H6            1 RES     
   19479 H6        -439.6425  -291.4622   593.0732 H6            1 RES     
   19480 H6        -439.3931  -292.9566   592.1002 H6            1 RES     
   19481 H6        -438.9097  -294.3048   594.1031 H6            1 RES     
   19482 H6        -440.5466  -293.5649   594.1225 H6            1 RES     
   19483 H6        -439.7631  -291.7932   595.6878 H6            1 RES     
   19484 H6        -438.1090  -292.5402   595.7114 H6            1 RES     
   19485 H6        -439.5195  -293.4539   596.3505 H6            1 RES     
   19486 H6        -434.8865  -289.8047   588.3225 H6            1 RES     
   19487 H6        -434.6737  -289.2918   590.0245 H6            1 RES     
   19488 H6        -435.0019  -287.5107   588.7482 H6            1 RES     
   19489 H6        -436.4500  -286.8996   588.1146 H6            1 RES     
   19490 H6        -436.1706  -287.2527   591.1500 H6            1 RES     
   19491 H6        -438.3986  -286.6029   590.2363 H6            1 RES     
   19492 H6        -437.7200  -285.4671   591.4454 H6            1 RES     
   19493 H6        -437.1291  -283.8141   589.7032 H6            1 RES     
   19494 H6        -437.6121  -284.9556   588.4291 H6            1 RES     
   19495 H6        -439.3664  -283.3781   588.6128 H6            1 RES     
   19496 H6        -439.9705  -284.9007   589.3064 H6            1 RES     
   19497 H6        -439.5946  -284.0006   591.6238 H6            1 RES     
   19498 H6        -440.7199  -283.0069   590.6454 H6            1 RES     
   19499 H6        -437.7652  -282.3078   591.2417 H6            1 RES     
   19500 H6        -439.2280  -281.5899   591.9830 H6            1 RES     
   19501 H6        -439.9538  -280.7014   589.7513 H6            1 RES     
   19502 H6        -438.3340  -280.0885   590.2533 H6            1 RES     
   19503 H6        -438.4431  -281.3656   589.0033 H6            1 RES     
   19504 H6        -434.1558  -286.2066   590.8440 H6            1 RES     
   19505 H6        -435.2732  -284.9031   591.3470 H6            1 RES     
   19506 H6        -435.3059  -284.2468   588.7702 H6            1 RES     
   19507 H6        -434.0492  -285.4700   588.5449 H6            1 RES     
   19508 H6        -433.1750  -283.1868   588.7256 H6            1 RES     
   19509 H6        -433.9318  -282.9583   590.3415 H6            1 RES     
   19510 H6        -431.7091  -285.0227   589.6959 H6            1 RES     
   19511 H6        -432.4851  -284.7455   591.2989 H6            1 RES     
   19512 H6        -431.6392  -282.4031   591.3524 H6            1 RES     
   19513 H6        -430.3576  -283.6659   591.2909 H6            1 RES     
   19514 H6        -431.3148  -282.0017   588.8738 H6            1 RES     
   19515 H6        -430.0345  -283.2673   588.8381 H6            1 RES     
   19516 H6        -429.1419  -280.9469   588.8840 H6            1 RES     
   19517 H6        -429.9850  -280.6142   590.4385 H6            1 RES     
   19518 H6        -428.5521  -282.3502   591.5692 H6            1 RES     
   19519 H6        -427.5580  -281.1048   590.7497 H6            1 RES     
   19520 H6        -427.7645  -282.7226   589.9796 H6            1 RES     
   19521 C0        -437.2605  -301.8173   587.9281 C0            1 RES     
   19522 C0        -438.4110  -302.8235   587.9725 C0            1 RES     
   19523 C0        -439.5447  -302.2589   588.4532 C0            1 RES     
   19524 S1        -440.8530  -303.3027   588.4644 S1            1 RES     
   19525 C0        -439.9367  -304.5807   587.8094 C0            1 RES     
   19526 C0        -438.6305  -304.1327   587.5490 C0            1 RES     
   19527 C0        -439.3324  -300.8671   588.6543 C0            1 RES     
   19528 C0        -438.0969  -300.5852   588.3068 C0            1 RES     
   19529 C0        -437.8797  -299.1529   588.2228 C0            1 RES     
   19530 C0        -439.0350  -298.4643   588.5601 C0            1 RES     
   19531 S1        -440.4316  -299.5115   589.0174 S1            1 RES     
   19532 H2        -437.9164  -304.7315   587.0249 H2            1 RES     
   19533 H2        -437.0066  -298.6754   587.8125 H2            1 RES     
   19534 N3        -439.8951  -308.2888   587.1474 N3            1 RES     
   19535 C0        -439.4956  -307.0100   587.4012 C0            1 RES     
   19536 C0        -440.4238  -305.9558   587.5179 C0            1 RES     
   19537 C0        -441.7814  -306.2859   587.3728 C0            1 RES     
   19538 N3        -442.8037  -305.3927   587.4526 N3            1 RES     
   19539 S1        -444.1298  -306.3404   587.1733 S1            1 RES     
   19540 N3        -443.4991  -307.8509   586.9527 N3            1 RES     
   19541 C0        -442.1680  -307.6250   587.0982 C0            1 RES     
   19542 C0        -441.2057  -308.6204   586.9899 C0            1 RES     
   19543 H4        -438.4464  -306.8211   587.5456 H4            1 RES     
   19544 C5        -437.7695  -309.9669   582.3827 C5            1 RES     
   19545 C5        -438.1074  -308.4862   582.5628 C5            1 RES     
   19546 C5        -437.8555  -307.9625   583.9879 C5            1 RES     
   19547 C5        -436.3842  -308.0472   584.4398 C5            1 RES     
   19548 C5        -436.2205  -307.4544   585.8500 C5            1 RES     
   19549 C5        -434.8254  -307.7031   586.4408 C5            1 RES     
   19550 C5        -434.6940  -307.1780   587.8903 C5            1 RES     
   19551 C5        -434.4474  -305.6426   588.0197 C5            1 RES     
   19552 C5        -435.5334  -304.8210   588.7803 C5            1 RES     
   19553 C5        -435.7235  -305.3060   590.2472 C5            1 RES     
   19554 C5        -437.1171  -304.9621   590.8055 C5            1 RES     
   19555 C5        -437.4844  -305.8638   592.0035 C5            1 RES     
   19556 C5        -438.9722  -305.7159   592.3700 C5            1 RES     
   19557 C5        -439.4691  -306.7957   593.3480 C5            1 RES     
   19558 C5        -438.8247  -306.7204   594.7277 C5            1 RES     
   19559 C5        -435.1621  -303.3084   588.6437 C5            1 RES     
   19560 C0        -436.0825  -302.0699   588.9705 C0            1 RES     
   19561 C5        -435.0878  -300.8317   589.0492 C5            1 RES     
   19562 C5        -434.7431  -300.3604   590.5016 C5            1 RES     
   19563 C5        -435.7818  -299.3542   591.0983 C5            1 RES     
   19564 C5        -435.7169  -297.9153   590.5345 C5            1 RES     
   19565 C5        -436.8624  -296.9988   591.0014 C5            1 RES     
   19566 C5        -436.8067  -296.5693   592.4799 C5            1 RES     
   19567 C5        -435.5701  -295.7318   592.8717 C5            1 RES     
   19568 C5        -435.4434  -294.4233   592.0847 C5            1 RES     
   19569 C5        -433.2637  -299.8790   590.6715 C5            1 RES     
   19570 C5        -432.6854  -298.9313   589.5889 C5            1 RES     
   19571 C5        -431.3032  -298.3503   589.9638 C5            1 RES     
   19572 C5        -430.2117  -299.4135   590.1911 C5            1 RES     
   19573 C5        -428.8386  -298.8122   590.5534 C5            1 RES     
   19574 C5        -428.1957  -298.0150   589.4019 C5            1 RES     
   19575 C5        -426.8260  -297.4134   589.7644 C5            1 RES     
   19576 C5        -425.7549  -298.4611   590.0714 C5            1 RES     
   19577 H6        -436.6848  -310.1480   582.5248 H6            1 RES     
   19578 H6        -438.0333  -310.2812   581.3504 H6            1 RES     
   19579 H6        -438.3470  -310.5882   583.0997 H6            1 RES     
   19580 H6        -437.5268  -307.8846   581.8316 H6            1 RES     
   19581 H6        -439.1890  -308.3544   582.3377 H6            1 RES     
   19582 H6        -438.1826  -306.9006   584.0205 H6            1 RES     
   19583 H6        -438.4904  -308.5401   584.6956 H6            1 RES     
   19584 H6        -435.7291  -307.4984   583.7284 H6            1 RES     
   19585 H6        -436.0787  -309.1144   584.4630 H6            1 RES     
   19586 H6        -436.4523  -306.3680   585.8284 H6            1 RES     
   19587 H6        -436.9368  -307.9795   586.5118 H6            1 RES     
   19588 H6        -434.6927  -308.8073   586.4739 H6            1 RES     
   19589 H6        -434.0201  -307.2834   585.8002 H6            1 RES     
   19590 H6        -435.5664  -307.5424   588.4694 H6            1 RES     
   19591 H6        -433.7990  -307.6688   588.3285 H6            1 RES     
   19592 H6        -434.3585  -305.2366   586.9870 H6            1 RES     
   19593 H6        -433.4586  -305.4720   588.4982 H6            1 RES     
   19594 H6        -436.4200  -305.0720   588.2422 H6            1 RES     
   19595 H6        -435.6898  -306.4089   590.2359 H6            1 RES     
   19596 H6        -434.8978  -304.9853   590.9185 H6            1 RES     
   19597 H6        -437.2031  -303.8818   591.0478 H6            1 RES     
   19598 H6        -437.8559  -305.2057   590.0135 H6            1 RES     
   19599 H6        -436.8253  -305.6526   592.8728 H6            1 RES     
   19600 H6        -437.3337  -306.9224   591.6954 H6            1 RES     
   19601 H6        -439.1727  -304.6986   592.7676 H6            1 RES     
   19602 H6        -439.5725  -305.8498   591.4421 H6            1 RES     
   19603 H6        -439.2882  -307.8040   592.9128 H6            1 RES     
   19604 H6        -440.5669  -306.6731   593.4727 H6            1 RES     
   19605 H6        -439.0285  -305.7323   595.1906 H6            1 RES     
   19606 H6        -437.7301  -306.8870   594.6658 H6            1 RES     
   19607 H6        -439.2596  -307.5125   595.3747 H6            1 RES     
   19608 H6        -434.8521  -303.1309   587.5897 H6            1 RES     
   19609 H6        -434.2448  -303.2200   589.2714 H6            1 RES     
   19610 H6        -434.1386  -301.1264   588.5541 H6            1 RES     
   19611 H6        -435.3756  -299.9753   588.4238 H6            1 RES     
   19612 H6        -434.8065  -301.2648   591.1495 H6            1 RES     
   19613 H6        -436.7974  -299.7770   590.9389 H6            1 RES     
   19614 H6        -435.6178  -299.2837   592.1949 H6            1 RES     
   19615 H6        -434.7622  -297.4292   590.7999 H6            1 RES     
   19616 H6        -435.7703  -297.9638   589.4370 H6            1 RES     
   19617 H6        -436.8574  -296.0826   590.3744 H6            1 RES     
   19618 H6        -437.8291  -297.5072   590.8110 H6            1 RES     
   19619 H6        -436.8548  -297.4684   593.1285 H6            1 RES     
   19620 H6        -437.7119  -295.9575   592.6886 H6            1 RES     
   19621 H6        -434.6400  -296.3239   592.7504 H6            1 RES     
   19622 H6        -435.6623  -295.4734   593.9487 H6            1 RES     
   19623 H6        -436.3574  -293.8041   592.2088 H6            1 RES     
   19624 H6        -434.5726  -293.8464   592.4618 H6            1 RES     
   19625 H6        -435.2735  -294.6171   591.0058 H6            1 RES     
   19626 H6        -432.6227  -300.7858   590.6505 H6            1 RES     
   19627 H6        -433.1620  -299.4273   591.6824 H6            1 RES     
   19628 H6        -433.3359  -298.0643   589.4057 H6            1 RES     
   19629 H6        -432.6012  -299.4698   588.6238 H6            1 RES     
   19630 H6        -431.0026  -297.6816   589.1311 H6            1 RES     
   19631 H6        -431.4062  -297.7329   590.8833 H6            1 RES     
   19632 H6        -430.1085  -300.0558   589.2899 H6            1 RES     
   19633 H6        -430.5156  -300.0533   591.0457 H6            1 RES     
   19634 H6        -428.9416  -298.1659   591.4528 H6            1 RES     
   19635 H6        -428.1737  -299.6625   590.8110 H6            1 RES     
   19636 H6        -428.8532  -297.1650   589.1290 H6            1 RES     
   19637 H6        -428.0839  -298.6713   588.5112 H6            1 RES     
   19638 H6        -426.4747  -296.8150   588.8955 H6            1 RES     
   19639 H6        -426.9328  -296.7287   590.6335 H6            1 RES     
   19640 H6        -426.0138  -299.0491   590.9749 H6            1 RES     
   19641 H6        -424.7880  -297.9506   590.2666 H6            1 RES     
   19642 H6        -425.6256  -299.1458   589.2069 H6            1 RES     
   19643 C0        -441.1089  -313.3268   584.9459 C0            1 RES     
   19644 C0        -442.5099  -313.9359   585.0120 C0            1 RES     
   19645 C0        -443.3126  -313.2417   585.8540 C0            1 RES     
   19646 S1        -444.8780  -313.8311   585.9155 S1            1 RES     
   19647 C0        -444.5393  -315.0651   584.7910 C0            1 RES     
   19648 C0        -443.2085  -314.9468   584.3551 C0            1 RES     
   19649 C0        -442.6245  -312.0882   586.3214 C0            1 RES     
   19650 C0        -441.4272  -312.0763   585.7802 C0            1 RES     
   19651 C0        -440.7609  -310.8038   585.9863 C0            1 RES     
   19652 C0        -441.5628  -309.9482   586.7265 C0            1 RES     
   19653 S1        -443.1490  -310.6464   587.2291 S1            1 RES     
   19654 H2        -442.8146  -315.5415   583.5587 H2            1 RES     
   19655 H2        -439.8455  -310.4928   585.5131 H2            1 RES     
   19656 N3        -445.8239  -318.2720   583.2895 N3            1 RES     
   19657 C0        -444.9912  -317.2899   583.7382 C0            1 RES     
   19658 C0        -445.4908  -316.0996   584.3038 C0            1 RES     
   19659 C0        -446.8872  -315.9770   584.3954 C0            1 RES     
   19660 N3        -447.5332  -314.8966   584.9097 N3            1 RES     
   19661 S1        -449.1239  -315.3082   584.7229 S1            1 RES     
   19662 N3        -449.0678  -316.8014   584.0194 N3            1 RES     
   19663 C0        -447.7308  -317.0119   583.9099 C0            1 RES     
   19664 C0        -447.1787  -318.1605   583.3583 C0            1 RES     
   19665 H4        -443.9296  -317.4546   583.6825 H4            1 RES     
   19666 C5        -445.0661  -319.0092   577.9119 C5            1 RES     
   19667 C5        -444.8646  -317.6136   578.5041 C5            1 RES     
   19668 C5        -444.2560  -317.6228   579.9177 C5            1 RES     
   19669 C5        -442.8483  -318.2462   579.9939 C5            1 RES     
   19670 C5        -442.3010  -318.1631   581.4294 C5            1 RES     
   19671 C5        -440.9994  -318.9555   581.6158 C5            1 RES     
   19672 C5        -440.4993  -318.9368   583.0800 C5            1 RES     
   19673 C5        -439.7415  -317.6407   583.5054 C5            1 RES     
   19674 C5        -440.3753  -316.8070   584.6614 C5            1 RES     
   19675 C5        -440.5080  -317.6261   585.9784 C5            1 RES     
   19676 C5        -441.6155  -317.0833   586.9008 C5            1 RES     
   19677 C5        -442.0894  -318.1547   587.9062 C5            1 RES     
   19678 C5        -443.3768  -317.7084   588.6224 C5            1 RES     
   19679 C5        -444.0616  -318.8418   589.4073 C5            1 RES     
   19680 C5        -443.2420  -319.3578   590.5848 C5            1 RES     
   19681 C5        -439.5460  -315.4890   584.8018 C5            1 RES     
   19682 C0        -439.9477  -314.1939   585.6075 C0            1 RES     
   19683 C5        -438.5978  -313.3650   585.7470 C5            1 RES     
   19684 C5        -437.9163  -313.4562   587.1533 C5            1 RES     
   19685 C5        -438.4676  -312.4192   588.1867 C5            1 RES     
   19686 C5        -438.0085  -310.9573   587.9748 C5            1 RES     
   19687 C5        -438.7075  -309.9342   588.8886 C5            1 RES     
   19688 C5        -438.3056  -309.9900   590.3748 C5            1 RES     
   19689 C5        -436.8192  -309.6870   590.6624 C5            1 RES     
   19690 C5        -436.3771  -308.2963   590.1951 C5            1 RES     
   19691 C5        -436.3526  -313.4820   587.0932 C5            1 RES     
   19692 C5        -435.6504  -312.4617   586.1602 C5            1 RES     
   19693 C5        -434.1156  -312.4290   586.3392 C5            1 RES     
   19694 C5        -433.4184  -313.7741   586.0599 C5            1 RES     
   19695 C5        -431.8873  -313.7167   586.2338 C5            1 RES     
   19696 C5        -431.1843  -312.8319   585.1859 C5            1 RES     
   19697 C5        -429.6561  -312.7733   585.3608 C5            1 RES     
   19698 C5        -428.9617  -314.1219   585.1653 C5            1 RES     
   19699 H6        -444.0944  -319.5213   577.7595 H6            1 RES     
   19700 H6        -445.5613  -318.9202   576.9214 H6            1 RES     
   19701 H6        -445.7105  -319.6245   578.5751 H6            1 RES     
   19702 H6        -444.2258  -317.0130   577.8222 H6            1 RES     
   19703 H6        -445.8614  -317.1231   578.5656 H6            1 RES     
   19704 H6        -444.2041  -316.5698   580.2702 H6            1 RES     
   19705 H6        -444.9408  -318.1793   580.5952 H6            1 RES     
   19706 H6        -442.1548  -317.7207   579.3016 H6            1 RES     
   19707 H6        -442.9142  -319.3142   579.6978 H6            1 RES     
   19708 H6        -442.1598  -317.0987   581.7149 H6            1 RES     
   19709 H6        -443.0508  -318.6353   582.0941 H6            1 RES     
   19710 H6        -441.2375  -320.0118   581.3594 H6            1 RES     
   19711 H6        -440.1987  -318.6109   580.9266 H6            1 RES     
   19712 H6        -441.3529  -319.1940   583.7392 H6            1 RES     
   19713 H6        -439.7659  -319.7653   583.1782 H6            1 RES     
   19714 H6        -439.6687  -316.9924   582.6034 H6            1 RES     
   19715 H6        -438.6955  -317.9028   583.7751 H6            1 RES     
   19716 H6        -441.3610  -316.6296   584.2935 H6            1 RES     
   19717 H6        -440.8441  -318.6402   585.7025 H6            1 RES     
   19718 H6        -439.5371  -317.7616   586.5024 H6            1 RES     
   19719 H6        -441.3032  -316.1426   587.4017 H6            1 RES     
   19720 H6        -442.4966  -316.8664   586.2611 H6            1 RES     
   19721 H6        -441.2827  -318.4014   588.6292 H6            1 RES     
   19722 H6        -442.3434  -319.0744   587.3335 H6            1 RES     
   19723 H6        -443.1705  -316.8386   589.2814 H6            1 RES     
   19724 H6        -444.1113  -317.3904   587.8487 H6            1 RES     
   19725 H6        -444.2885  -319.6868   588.7194 H6            1 RES     
   19726 H6        -445.0275  -318.4575   589.8012 H6            1 RES     
   19727 H6        -443.0393  -318.5329   591.2993 H6            1 RES     
   19728 H6        -442.2850  -319.7999   590.2408 H6            1 RES     
   19729 H6        -443.8199  -320.1488   591.1097 H6            1 RES     
   19730 H6        -439.3457  -315.1055   583.7765 H6            1 RES     
   19731 H6        -438.5730  -315.8499   585.2096 H6            1 RES     
   19732 H6        -437.8797  -313.7564   584.9962 H6            1 RES     
   19733 H6        -438.6697  -312.3183   585.4203 H6            1 RES     
   19734 H6        -438.1848  -314.4546   587.5691 H6            1 RES     
   19735 H6        -439.5776  -312.4733   588.1659 H6            1 RES     
   19736 H6        -438.1374  -312.7217   589.2035 H6            1 RES     
   19737 H6        -436.9194  -310.8591   588.1244 H6            1 RES     
   19738 H6        -438.2283  -310.6655   586.9374 H6            1 RES     
   19739 H6        -438.4866  -308.9147   588.5083 H6            1 RES     
   19740 H6        -439.8046  -310.0713   588.8075 H6            1 RES     
   19741 H6        -438.5580  -310.9880   590.7892 H6            1 RES     
   19742 H6        -438.9177  -309.2374   590.9191 H6            1 RES     
   19743 H6        -436.1651  -310.4541   590.1999 H6            1 RES     
   19744 H6        -436.6684  -309.7400   591.7623 H6            1 RES     
   19745 H6        -437.0067  -307.5098   590.6629 H6            1 RES     
   19746 H6        -435.3204  -308.1243   590.4904 H6            1 RES     
   19747 H6        -436.4341  -308.2055   589.0910 H6            1 RES     
   19748 H6        -436.0586  -314.4848   586.7171 H6            1 RES     
   19749 H6        -435.9661  -313.3936   588.1320 H6            1 RES     
   19750 H6        -435.9951  -311.4327   586.3359 H6            1 RES     
   19751 H6        -435.8859  -312.6950   585.1026 H6            1 RES     
   19752 H6        -433.7301  -311.6587   585.6400 H6            1 RES     
   19753 H6        -433.8779  -312.1048   587.3763 H6            1 RES     
   19754 H6        -433.6617  -314.1264   585.0342 H6            1 RES     
   19755 H6        -433.7945  -314.5235   586.7873 H6            1 RES     
   19756 H6        -431.6427  -313.3603   587.2586 H6            1 RES     
   19757 H6        -431.5131  -314.7561   586.1291 H6            1 RES     
   19758 H6        -431.5538  -311.7903   585.2745 H6            1 RES     
   19759 H6        -431.4228  -313.2025   584.1650 H6            1 RES     
   19760 H6        -429.2517  -312.0709   584.5995 H6            1 RES     
   19761 H6        -429.4067  -312.3719   586.3669 H6            1 RES     
   19762 H6        -429.2717  -314.8509   585.9408 H6            1 RES     
   19763 H6        -427.8629  -313.9843   585.2512 H6            1 RES     
   19764 H6        -429.1895  -314.5310   584.1584 H6            1 RES     
   19765 C0        -448.9370  -321.8910   580.3039 C0            1 RES     
   19766 C0        -450.4367  -322.0730   580.5397 C0            1 RES     
   19767 C0        -450.8371  -321.4593   581.6791 C0            1 RES     
   19768 S1        -452.4844  -321.5758   581.9523 S1            1 RES     
   19769 C0        -452.7356  -322.4698   580.5242 C0            1 RES     
   19770 C0        -451.5161  -322.6083   579.8396 C0            1 RES     
   19771 C0        -449.7468  -320.7353   582.2356 C0            1 RES     
   19772 C0        -448.7019  -320.9028   581.4568 C0            1 RES     
   19773 C0        -447.6291  -319.9874   581.7989 C0            1 RES     
   19774 C0        -447.9894  -319.1966   582.8794 C0            1 RES     
   19775 S1        -449.6304  -319.5357   583.5491 S1            1 RES     
   19776 H2        -451.4577  -323.0295   578.8587 H2            1 RES     
   19777 H2        -446.7383  -319.8221   581.2177 H2            1 RES     
   19778 N3        -455.2089  -324.6001   578.6442 N3            1 RES     
   19779 C0        -454.0432  -324.0680   579.1105 C0            1 RES     
   19780 C0        -454.0349  -323.0051   580.0361 C0            1 RES     
   19781 C0        -455.2840  -322.5272   580.4658 C0            1 RES     
   19782 N3        -455.4559  -321.5087   581.3502 N3            1 RES     
   19783 S1        -457.1026  -321.3828   581.4357 S1            1 RES     
   19784 N3        -457.6445  -322.5575   580.4089 N3            1 RES     
   19785 C0        -456.4825  -323.0938   579.9550 C0            1 RES     
   19786 C0        -456.4260  -324.1374   579.0405 C0            1 RES     
   19787 H4        -453.1154  -324.5007   578.7802 H4            1 RES     
   19788 C5        -455.5006  -323.9133   573.2147 C5            1 RES     
   19789 C5        -454.7664  -322.8677   574.0555 C5            1 RES     
   19790 C5        -454.0036  -323.4610   575.2534 C5            1 RES     
   19791 C5        -452.8866  -324.4488   574.8628 C5            1 RES     
   19792 C5        -452.1473  -324.9469   576.1167 C5            1 RES     
   19793 C5        -451.1699  -326.0917   575.8147 C5            1 RES     
   19794 C5        -450.4919  -326.6436   577.0914 C5            1 RES     
   19795 C5        -449.2952  -325.7967   577.6258 C5            1 RES     
   19796 C5        -449.4476  -325.1947   579.0567 C5            1 RES     
   19797 C5        -449.6586  -326.2914   580.1411 C5            1 RES     
   19798 C5        -450.3822  -325.7538   581.3898 C5            1 RES     
   19799 C5        -451.0389  -326.8940   582.1973 C5            1 RES     
   19800 C5        -451.9914  -326.3337   583.2690 C5            1 RES     
   19801 C5        -452.8963  -327.4066   583.9010 C5            1 RES     
   19802 C5        -452.1379  -328.4533   584.7097 C5            1 RES     
   19803 C5        -448.2169  -324.2644   579.3105 C5            1 RES     
   19804 C0        -448.0488  -323.2036   580.4656 C0            1 RES     
   19805 C5        -446.4949  -322.8664   580.4871 C5            1 RES     
   19806 C5        -445.6922  -323.5530   581.6424 C5            1 RES     
   19807 C5        -445.7174  -322.7526   582.9863 C5            1 RES     
   19808 C5        -444.8337  -321.4835   583.0239 C5            1 RES     
   19809 C5        -445.0180  -320.6194   584.2846 C5            1 RES     
   19810 C5        -444.4533  -321.2183   585.5868 C5            1 RES     
   19811 C5        -442.9258  -321.4435   585.5948 C5            1 RES     
   19812 C5        -442.1174  -320.1600   585.3780 C5            1 RES     
   19813 C5        -444.2506  -323.9986   581.2273 C5            1 RES     
   19814 C5        -443.3877  -322.9906   580.4249 C5            1 RES     
   19815 C5        -441.9201  -323.4447   580.2561 C5            1 RES     
   19816 C5        -441.7553  -324.7883   579.5208 C5            1 RES     
   19817 C5        -440.2835  -325.2173   579.3537 C5            1 RES     
   19818 C5        -439.4811  -324.2997   578.4108 C5            1 RES     
   19819 C5        -438.0115  -324.7270   578.2457 C5            1 RES     
   19820 C5        -437.8388  -326.0976   577.5893 C5            1 RES     
   19821 H6        -454.7855  -324.6100   572.7322 H6            1 RES     
   19822 H6        -456.0718  -323.4029   572.4102 H6            1 RES     
   19823 H6        -456.2129  -324.4885   573.8435 H6            1 RES     
   19824 H6        -454.0668  -322.2989   573.4068 H6            1 RES     
   19825 H6        -455.5248  -322.1572   574.4528 H6            1 RES     
   19826 H6        -453.5562  -322.6163   575.8210 H6            1 RES     
   19827 H6        -454.7321  -323.9753   575.9185 H6            1 RES     
   19828 H6        -452.1624  -323.9610   574.1744 H6            1 RES     
   19829 H6        -453.3441  -325.3198   574.3480 H6            1 RES     
   19830 H6        -451.6222  -324.0973   576.6035 H6            1 RES     
   19831 H6        -452.9102  -325.3621   576.8040 H6            1 RES     
   19832 H6        -451.7785  -326.9151   575.3791 H6            1 RES     
   19833 H6        -450.4053  -325.8002   575.0629 H6            1 RES     
   19834 H6        -451.2811  -326.8315   577.8471 H6            1 RES     
   19835 H6        -450.0690  -327.6358   576.8256 H6            1 RES     
   19836 H6        -449.1385  -324.9607   576.9075 H6            1 RES     
   19837 H6        -448.3686  -326.4093   577.5841 H6            1 RES     
   19838 H6        -450.3599  -324.6478   578.9722 H6            1 RES     
   19839 H6        -450.3474  -327.0431   579.7190 H6            1 RES     
   19840 H6        -448.7244  -326.8416   580.3863 H6            1 RES     
   19841 H6        -449.7085  -325.1285   582.0129 H6            1 RES     
   19842 H6        -451.2218  -325.1207   581.0339 H6            1 RES     
   19843 H6        -450.2669  -327.5579   582.6418 H6            1 RES     
   19844 H6        -451.6614  -327.4956   581.4981 H6            1 RES     
   19845 H6        -451.4178  -325.7896   584.0490 H6            1 RES     
   19846 H6        -452.6795  -325.6101   582.7769 H6            1 RES     
   19847 H6        -453.4849  -327.9139   583.1041 H6            1 RES     
   19848 H6        -453.6146  -326.8991   584.5809 H6            1 RES     
   19849 H6        -451.5749  -327.9655   585.5325 H6            1 RES     
   19850 H6        -451.4401  -329.0258   584.0654 H6            1 RES     
   19851 H6        -452.8659  -329.1673   585.1516 H6            1 RES     
   19852 H6        -448.0466  -323.6702   578.3852 H6            1 RES     
   19853 H6        -447.3718  -324.9872   579.3927 H6            1 RES     
   19854 H6        -446.0602  -323.2063   579.5237 H6            1 RES     
   19855 H6        -446.2604  -321.7940   580.4387 H6            1 RES     
   19856 H6        -446.2158  -324.5116   581.8631 H6            1 RES     
   19857 H6        -446.7738  -322.4838   583.2040 H6            1 RES     
   19858 H6        -445.3673  -323.4194   583.8031 H6            1 RES     
   19859 H6        -443.7642  -321.7439   582.9429 H6            1 RES     
   19860 H6        -445.0874  -320.8515   582.1603 H6            1 RES     
   19861 H6        -444.5270  -319.6385   584.1133 H6            1 RES     
   19862 H6        -446.0984  -320.4124   584.4230 H6            1 RES     
   19863 H6        -444.9619  -322.1807   585.8026 H6            1 RES     
   19864 H6        -444.6982  -320.5176   586.4153 H6            1 RES     
   19865 H6        -442.6352  -322.1932   584.8308 H6            1 RES     
   19866 H6        -442.6486  -321.8562   586.5888 H6            1 RES     
   19867 H6        -442.3781  -319.4010   586.1461 H6            1 RES     
   19868 H6        -441.0332  -320.3864   585.4594 H6            1 RES     
   19869 H6        -442.2953  -319.7379   584.3677 H6            1 RES     
   19870 H6        -444.3619  -324.8878   580.5712 H6            1 RES     
   19871 H6        -443.7150  -324.3305   582.1435 H6            1 RES     
   19872 H6        -443.3431  -322.0046   580.9091 H6            1 RES     
   19873 H6        -443.8331  -322.8281   579.4231 H6            1 RES     
   19874 H6        -441.4028  -322.6444   579.6878 H6            1 RES     
   19875 H6        -441.4453  -323.5187   581.2593 H6            1 RES     
   19876 H6        -442.2430  -324.7418   578.5231 H6            1 RES     
   19877 H6        -442.2528  -325.5803   580.1185 H6            1 RES     
   19878 H6        -439.7934  -325.2602   580.3512 H6            1 RES     
   19879 H6        -440.2941  -326.2418   578.9276 H6            1 RES     
   19880 H6        -439.4676  -323.2698   578.8211 H6            1 RES     
   19881 H6        -439.9696  -324.2725   577.4123 H6            1 RES     
   19882 H6        -437.5079  -323.9760   577.5985 H6            1 RES     
   19883 H6        -437.5046  -324.7247   579.2349 H6            1 RES     
   19884 H6        -438.2612  -326.9036   578.2225 H6            1 RES     
   19885 H6        -436.7561  -326.3060   577.4553 H6            1 RES     
   19886 H6        -438.3282  -326.1128   576.5927 H6            1 RES     
   19887 C0        -459.7326  -326.1586   575.6763 C0            1 RES     
   19888 C0        -461.1590  -325.9723   576.1947 C0            1 RES     
   19889 C0        -461.1690  -325.6322   577.5059 C0            1 RES     
   19890 S1        -462.7060  -325.3554   578.1082 S1            1 RES     
   19891 C0        -463.4373  -325.6839   576.6051 C0            1 RES     
   19892 C0        -462.4417  -325.9531   575.6506 C0            1 RES     
   19893 C0        -459.8336  -325.4399   577.9558 C0            1 RES     
   19894 C0        -459.0237  -325.6589   576.9446 C0            1 RES     
   19895 C0        -457.6712  -325.2241   577.2403 C0            1 RES     
   19896 C0        -457.5933  -324.7162   578.5283 C0            1 RES     
   19897 S1        -459.1427  -324.7607   579.4522 S1            1 RES     
   19898 H2        -462.6645  -326.0674   574.6112 H2            1 RES     
   19899 H2        -456.8668  -325.1534   576.5285 H2            1 RES     
   19900 N3        -466.7151  -326.3853   574.8865 N3            1 RES     
   19901 C0        -465.3858  -326.3632   575.1893 C0            1 RES     
   19902 C0        -464.8954  -325.6649   576.3111 C0            1 RES     
   19903 C0        -465.8418  -325.0027   577.1106 C0            1 RES     
   19904 N3        -465.5401  -324.2823   578.2237 N3            1 RES     
   19905 S1        -467.0224  -323.7293   578.7050 S1            1 RES     
   19906 N3        -468.0618  -324.3500   577.5814 N3            1 RES     
   19907 C0        -467.2194  -325.0340   576.7651 C0            1 RES     
   19908 C0        -467.6414  -325.7361   575.6437 C0            1 RES     
   19909 H4        -464.7102  -326.9229   574.5668 H4            1 RES     
   19910 C5        -467.5205  -324.0867   569.9769 C5            1 RES     
   19911 C5        -466.3707  -323.5836   570.8510 C5            1 RES     
   19912 C5        -465.6881  -324.6908   571.6737 C5            1 RES     
   19913 C5        -465.0288  -325.7935   570.8219 C5            1 RES     
   19914 C5        -464.3286  -326.8235   571.7251 C5            1 RES     
   19915 C5        -463.8391  -328.0563   570.9519 C5            1 RES     
   19916 C5        -463.2109  -329.1250   571.8779 C5            1 RES     
   19917 C5        -461.7386  -328.8438   572.3116 C5            1 RES     
   19918 C5        -461.4803  -328.6695   573.8400 C5            1 RES     
   19919 C5        -461.8890  -329.9298   574.6571 C5            1 RES     
   19920 C5        -462.2106  -329.6004   576.1268 C5            1 RES     
   19921 C5        -463.0884  -330.6941   576.7722 C5            1 RES     
   19922 C5        -463.6406  -330.2278   578.1314 C5            1 RES     
   19923 C5        -464.7523  -331.1389   578.6824 C5            1 RES     
   19924 C5        -464.2789  -332.5454   579.0321 C5            1 RES     
   19925 C5        -459.9879  -328.2396   574.0201 C5            1 RES     
   19926 C0        -459.3171  -327.6553   575.3226 C0            1 RES     
   19927 C5        -457.7526  -327.7904   575.0716 C5            1 RES     
   19928 C5        -457.0697  -328.9816   575.8233 C5            1 RES     
   19929 C5        -456.6391  -328.6363   577.2871 C5            1 RES     
   19930 C5        -455.3883  -327.7360   577.4200 C5            1 RES     
   19931 C5        -455.0967  -327.2633   578.8558 C5            1 RES     
   19932 C5        -454.5861  -328.3505   579.8205 C5            1 RES     
   19933 C5        -453.2348  -328.9882   579.4313 C5            1 RES     
   19934 C5        -452.0851  -327.9791   579.3439 C5            1 RES     
   19935 C5        -455.9310  -329.6728   575.0018 C5            1 RES     
   19936 C5        -454.9040  -328.7594   574.2839 C5            1 RES     
   19937 C5        -453.7093  -329.5377   573.6875 C5            1 RES     
   19938 C5        -454.1047  -330.5969   572.6411 C5            1 RES     
   19939 C5        -452.8976  -331.3539   572.0513 C5            1 RES     
   19940 C5        -451.9767  -330.4650   571.1930 C5            1 RES     
   19941 C5        -450.7708  -331.2204   570.6059 C5            1 RES     
   19942 C5        -451.1566  -332.3296   569.6261 C5            1 RES     
   19943 H6        -467.1524  -324.7833   569.1967 H6            1 RES     
   19944 H6        -467.9968  -323.2242   569.4639 H6            1 RES     
   19945 H6        -468.2878  -324.5961   570.5978 H6            1 RES     
   19946 H6        -465.6203  -323.0707   570.2127 H6            1 RES     
   19947 H6        -466.7867  -322.8372   571.5636 H6            1 RES     
   19948 H6        -464.9109  -324.2108   572.3071 H6            1 RES     
   19949 H6        -466.4451  -325.1507   572.3468 H6            1 RES     
   19950 H6        -464.2878  -325.3498   570.1216 H6            1 RES     
   19951 H6        -465.8168  -326.3102   570.2347 H6            1 RES     
   19952 H6        -463.4886  -326.3372   572.2657 H6            1 RES     
   19953 H6        -465.0817  -327.1896   572.4501 H6            1 RES     
   19954 H6        -464.7413  -328.5102   570.4847 H6            1 RES     
   19955 H6        -463.1345  -327.7848   570.1366 H6            1 RES     
   19956 H6        -463.9035  -329.2959   572.7266 H6            1 RES     
   19957 H6        -463.1829  -330.0728   571.2995 H6            1 RES     
   19958 H6        -461.4156  -327.9136   571.7922 H6            1 RES     
   19959 H6        -461.0833  -329.6520   571.9203 H6            1 RES     
   19960 H6        -462.1616  -327.8884   574.0933 H6            1 RES     
   19961 H6        -462.8403  -330.2995   574.2375 H6            1 RES     
   19962 H6        -461.1659  -330.7671   574.5501 H6            1 RES     
   19963 H6        -461.2872  -329.4006   576.7105 H6            1 RES     
   19964 H6        -462.8336  -328.6815   576.1272 H6            1 RES     
   19965 H6        -462.5262  -331.6480   576.8638 H6            1 RES     
   19966 H6        -463.9668  -330.8642   576.1106 H6            1 RES     
   19967 H6        -462.8156  -330.1200   578.8670 H6            1 RES     
   19968 H6        -464.1114  -329.2290   577.9899 H6            1 RES     
   19969 H6        -465.5814  -331.2038   577.9428 H6            1 RES     
   19970 H6        -465.1585  -330.6720   579.6059 H6            1 RES     
   19971 H6        -463.4764  -332.4987   579.7974 H6            1 RES     
   19972 H6        -463.9082  -333.0763   578.1318 H6            1 RES     
   19973 H6        -465.1330  -333.1226   579.4473 H6            1 RES     
   19974 H6        -459.7615  -327.4736   573.2452 H6            1 RES     
   19975 H6        -459.4279  -329.1619   573.7387 H6            1 RES     
   19976 H6        -457.5950  -327.9414   573.9830 H6            1 RES     
   19977 H6        -457.1847  -326.8621   575.2235 H6            1 RES     
   19978 H6        -457.8453  -329.7751   575.9261 H6            1 RES     
   19979 H6        -457.5049  -328.1574   577.7938 H6            1 RES     
   19980 H6        -456.4194  -329.5832   577.8250 H6            1 RES     
   19981 H6        -454.4884  -328.2510   577.0416 H6            1 RES     
   19982 H6        -455.5362  -326.8343   576.8078 H6            1 RES     
   19983 H6        -454.3371  -326.4547   578.8122 H6            1 RES     
   19984 H6        -456.0164  -326.8108   579.2784 H6            1 RES     
   19985 H6        -455.3497  -329.1502   579.9143 H6            1 RES     
   19986 H6        -454.4658  -327.8837   580.8229 H6            1 RES     
   19987 H6        -453.3196  -329.5315   578.4681 H6            1 RES     
   19988 H6        -452.9738  -329.7342   580.2127 H6            1 RES     
   19989 H6        -451.9687  -327.4368   580.3064 H6            1 RES     
   19990 H6        -451.1374  -328.5146   579.1238 H6            1 RES     
   19991 H6        -452.2526  -327.2476   578.5269 H6            1 RES     
   19992 H6        -456.4219  -330.2622   574.1986 H6            1 RES     
   19993 H6        -455.4131  -330.3949   575.6702 H6            1 RES     
   19994 H6        -454.4673  -328.0125   574.9621 H6            1 RES     
   19995 H6        -455.4060  -328.1925   573.4745 H6            1 RES     
   19996 H6        -453.0409  -328.7855   573.2203 H6            1 RES     
   19997 H6        -453.1503  -330.0325   574.5122 H6            1 RES     
   19998 H6        -454.6840  -330.1253   571.8181 H6            1 RES     
   19999 H6        -454.7478  -331.3558   573.1335 H6            1 RES     
   20000 H6        -452.3147  -331.8229   572.8744 H6            1 RES     
   20001 H6        -453.3072  -332.1626   571.4114 H6            1 RES     
   20002 H6        -451.5647  -329.6475   571.8186 H6            1 RES     
   20003 H6        -452.5634  -330.0106   570.3649 H6            1 RES     
   20004 H6        -450.1424  -330.4863   570.0558 H6            1 RES     
   20005 H6        -450.1584  -331.6503   571.4280 H6            1 RES     
   20006 H6        -451.7293  -333.1328   570.1319 H6            1 RES     
   20007 H6        -450.2345  -332.7853   569.2067 H6            1 RES     
   20008 H6        -451.7579  -331.9143   568.7901 H6            1 RES     
   20009 C0        -471.8684  -325.6691   572.7342 C0            1 RES     
   20010 C0        -473.0645  -325.2494   573.5894 C0            1 RES     
   20011 C0        -472.7771  -325.3195   574.9114 C0            1 RES     
   20012 S1        -474.0345  -324.8106   575.8920 S1            1 RES     
   20013 C0        -475.0365  -324.4653   574.5582 C0            1 RES     
   20014 C0        -474.3309  -324.7120   573.3682 C0            1 RES     
   20015 C0        -471.4045  -325.6509   575.0810 C0            1 RES     
   20016 C0        -470.8634  -325.7829   573.8909 C0            1 RES     
   20017 C0        -469.4160  -325.8524   573.9675 C0            1 RES     
   20018 C0        -468.9942  -325.7870   575.2868 C0            1 RES     
   20019 S1        -470.3248  -325.6623   576.4994 S1            1 RES     
   20020 H2        -474.7225  -324.4497   572.4086 H2            1 RES     
   20021 H2        -468.7420  -325.8057   573.1296 H2            1 RES     
   20022 N3        -478.5679  -323.6818   573.5072 N3            1 RES     
   20023 C0        -477.2781  -324.1240   573.4993 C0            1 RES     
   20024 C0        -476.4316  -323.9520   574.6130 C0            1 RES     
   20025 C0        -476.9826  -323.3146   575.7371 C0            1 RES     
   20026 N3        -476.3059  -323.0667   576.8903 N3            1 RES     
   20027 S1        -477.4377  -322.2852   577.8085 S1            1 RES     
   20028 N3        -478.7708  -322.2315   576.8350 N3            1 RES     
   20029 C0        -478.3265  -322.8547   575.7133 C0            1 RES     
   20030 C0        -479.1103  -323.0495   574.5836 C0            1 RES     
   20031 H4        -476.9209  -324.6433   572.6276 H4            1 RES     
   20032 C5        -479.2447  -319.9178   569.5815 C5            1 RES     
   20033 C5        -477.8826  -320.0371   570.2668 C5            1 RES     
   20034 C5        -477.4980  -321.4817   570.6326 C5            1 RES     
   20035 C5        -477.3683  -322.4256   569.4208 C5            1 RES     
   20036 C5        -476.9304  -323.8282   569.8769 C5            1 RES     
   20037 C5        -476.9914  -324.8662   568.7474 C5            1 RES     
   20038 C5        -476.6302  -326.2906   569.2321 C5            1 RES     
   20039 C5        -475.1026  -326.5745   569.3764 C5            1 RES     
   20040 C5        -474.5895  -326.9352   570.8046 C5            1 RES     
   20041 C5        -475.2746  -328.2112   571.3752 C5            1 RES     
   20042 C5        -475.2591  -328.2497   572.9147 C5            1 RES     
   20043 C5        -476.3505  -329.1914   573.4676 C5            1 RES     
   20044 C5        -476.5203  -329.0077   574.9865 C5            1 RES     
   20045 C5        -477.7824  -329.6890   575.5453 C5            1 RES     
   20046 C5        -477.7586  -331.2099   575.4409 C5            1 RES     
   20047 C5        -473.0294  -327.0146   570.7392 C5            1 RES     
   20048 C0        -472.0271  -327.0504   571.9566 C0            1 RES     
   20049 C5        -470.6477  -327.5403   571.3352 C5            1 RES     
   20050 C5        -470.3007  -329.0410   571.6141 C5            1 RES     
   20051 C5        -469.5792  -329.2748   572.9823 C5            1 RES     
   20052 C5        -468.0950  -328.8426   573.0365 C5            1 RES     
   20053 C5        -467.4647  -328.9127   574.4394 C5            1 RES     
   20054 C5        -467.2140  -330.3323   574.9829 C5            1 RES     
   20055 C5        -466.2196  -331.1812   574.1615 C5            1 RES     
   20056 C5        -464.8245  -330.5566   574.0555 C5            1 RES     
   20057 C5        -469.5831  -329.7525   570.4191 C5            1 RES     
   20058 C5        -468.4225  -328.9964   569.7220 C5            1 RES     
   20059 C5        -467.6500  -329.8692   568.7071 C5            1 RES     
   20060 C5        -468.5171  -330.4198   567.5589 C5            1 RES     
   20061 C5        -467.7250  -331.2785   566.5523 C5            1 RES     
   20062 C5        -466.6912  -330.4739   565.7406 C5            1 RES     
   20063 C5        -465.8994  -331.3316   564.7372 C5            1 RES     
   20064 C5        -466.7648  -331.9501   563.6383 C5            1 RES     
   20065 H6        -479.2419  -320.4297   568.5979 H6            1 RES     
   20066 H6        -479.4746  -318.8454   569.4049 H6            1 RES     
   20067 H6        -480.0424  -320.3493   570.2227 H6            1 RES     
   20068 H6        -477.1018  -319.5925   569.6138 H6            1 RES     
   20069 H6        -477.9230  -319.4464   571.2088 H6            1 RES     
   20070 H6        -476.5248  -321.4469   571.1687 H6            1 RES     
   20071 H6        -478.2624  -321.8861   571.3324 H6            1 RES     
   20072 H6        -476.6280  -322.0236   568.6951 H6            1 RES     
   20073 H6        -478.3572  -322.5045   568.9222 H6            1 RES     
   20074 H6        -475.9096  -323.7781   570.3126 H6            1 RES     
   20075 H6        -477.6527  -324.1631   570.6468 H6            1 RES     
   20076 H6        -478.0490  -324.8907   568.4026 H6            1 RES     
   20077 H6        -476.3583  -324.5777   567.8808 H6            1 RES     
   20078 H6        -477.2140  -326.5005   570.1510 H6            1 RES     
   20079 H6        -476.9998  -326.9955   568.4573 H6            1 RES     
   20080 H6        -474.5655  -325.6632   569.0295 H6            1 RES     
   20081 H6        -474.8145  -327.3830   568.6699 H6            1 RES     
   20082 H6        -474.9303  -326.1038   571.3801 H6            1 RES     
   20083 H6        -476.3435  -328.1588   571.1062 H6            1 RES     
   20084 H6        -474.8929  -329.1484   570.9156 H6            1 RES     
   20085 H6        -474.2496  -328.4977   573.3055 H6            1 RES     
   20086 H6        -475.5352  -327.2349   573.2700 H6            1 RES     
   20087 H6        -476.1298  -330.2481   573.2047 H6            1 RES     
   20088 H6        -477.3191  -328.9063   572.9999 H6            1 RES     
   20089 H6        -475.6118  -329.3564   575.5216 H6            1 RES     
   20090 H6        -476.6477  -327.9210   575.1920 H6            1 RES     
   20091 H6        -478.6811  -329.2987   575.0173 H6            1 RES     
   20092 H6        -477.8769  -329.4183   576.6194 H6            1 RES     
   20093 H6        -476.8872  -331.6168   575.9950 H6            1 RES     
   20094 H6        -477.7152  -331.5359   574.3818 H6            1 RES     
   20095 H6        -478.6887  -331.6188   575.8913 H6            1 RES     
   20096 H6        -472.6727  -326.1515   570.1341 H6            1 RES     
   20097 H6        -472.8526  -327.9326   570.1315 H6            1 RES     
   20098 H6        -470.7034  -327.4041   570.2347 H6            1 RES     
   20099 H6        -469.7886  -326.8960   571.5677 H6            1 RES     
   20100 H6        -471.2732  -329.5782   571.7007 H6            1 RES     
   20101 H6        -470.1568  -328.7419   573.7685 H6            1 RES     
   20102 H6        -469.6130  -330.3595   573.2205 H6            1 RES     
   20103 H6        -467.4794  -329.4556   572.3557 H6            1 RES     
   20104 H6        -468.0195  -327.7978   572.7015 H6            1 RES     
   20105 H6        -466.4939  -328.3746   574.4159 H6            1 RES     
   20106 H6        -468.1132  -328.3643   575.1520 H6            1 RES     
   20107 H6        -468.1785  -330.8759   575.0569 H6            1 RES     
   20108 H6        -466.8063  -330.2328   576.0131 H6            1 RES     
   20109 H6        -466.6142  -331.3721   573.1426 H6            1 RES     
   20110 H6        -466.1142  -332.1651   574.6676 H6            1 RES     
   20111 H6        -464.4010  -330.3754   575.0663 H6            1 RES     
   20112 H6        -464.1491  -331.2482   573.5088 H6            1 RES     
   20113 H6        -464.8525  -329.6020   573.4913 H6            1 RES     
   20114 H6        -470.3493  -329.9181   569.6323 H6            1 RES     
   20115 H6        -469.2459  -330.7537   570.7661 H6            1 RES     
   20116 H6        -467.6722  -328.6351   570.4396 H6            1 RES     
   20117 H6        -468.8162  -328.1003   569.2020 H6            1 RES     
   20118 H6        -466.8423  -329.2329   568.2902 H6            1 RES     
   20119 H6        -467.1772  -330.7199   569.2456 H6            1 RES     
   20120 H6        -469.0164  -329.5850   567.0211 H6            1 RES     
   20121 H6        -469.2999  -331.0767   567.9924 H6            1 RES     
   20122 H6        -467.2215  -332.1119   567.0901 H6            1 RES     
   20123 H6        -468.4653  -331.7152   565.8504 H6            1 RES     
   20124 H6        -465.9480  -330.0257   566.4305 H6            1 RES     
   20125 H6        -467.2039  -329.6513   565.1956 H6            1 RES     
   20126 H6        -465.1467  -330.6764   564.2467 H6            1 RES     
   20127 H6        -465.3556  -332.1373   565.2765 H6            1 RES     
   20128 H6        -467.4947  -332.6711   564.0581 H6            1 RES     
   20129 H6        -466.1147  -332.5031   562.9275 H6            1 RES     
   20130 H6        -467.3051  -331.1568   563.0800 H6            1 RES     
   20131 C0        -483.4391  -320.9482   572.7995 C0            1 RES     
   20132 C0        -484.2957  -320.4786   573.9758 C0            1 RES     
   20133 C0        -483.8655  -321.0103   575.1452 C0            1 RES     
   20134 S1        -484.7321  -320.4786   576.4748 S1            1 RES     
   20135 C0        -485.7392  -319.4910   575.5196 C0            1 RES     
   20136 C0        -485.3297  -319.5666   574.1774 C0            1 RES     
   20137 C0        -482.6714  -321.7489   574.9190 C0            1 RES     
   20138 C0        -482.3772  -321.6734   573.6406 C0            1 RES     
   20139 C0        -481.0394  -322.1663   573.3708 C0            1 RES     
   20140 C0        -480.4392  -322.6112   574.5390 C0            1 RES     
   20141 S1        -481.4690  -322.4780   576.0148 S1            1 RES     
   20142 H2        -485.7425  -318.9360   573.4191 H2            1 RES     
   20143 H2        -480.5126  -322.0679   572.4372 H2            1 RES     
   20144 N3        -488.9207  -317.4743   575.5039 N3            1 RES     
   20145 C0        -487.8654  -318.2388   575.1026 C0            1 RES     
   20146 C0        -486.8626  -318.6456   576.0056 C0            1 RES     
   20147 C0        -487.0073  -318.2370   577.3418 C0            1 RES     
   20148 N3        -486.1322  -318.5382   578.3380 N3            1 RES     
   20149 S1        -486.7998  -317.7745   579.6441 S1            1 RES     
   20150 N3        -488.1621  -317.0656   579.0360 N3            1 RES     
   20151 C0        -488.1117  -317.4318   577.7294 C0            1 RES     
   20152 C0        -489.0659  -317.0589   576.7920 C0            1 RES     
   20153 H4        -487.8268  -318.5588   574.0763 H4            1 RES     
   20154 C5        -488.8532  -312.6952   572.8222 C5            1 RES     
   20155 C5        -487.5261  -313.3878   573.1357 C5            1 RES     
   20156 C5        -487.5955  -314.9232   573.0577 C5            1 RES     
   20157 C5        -487.9577  -315.4678   571.6618 C5            1 RES     
   20158 C5        -487.9508  -317.0062   571.6670 C5            1 RES     
   20159 C5        -488.5105  -317.6073   570.3699 C5            1 RES     
   20160 C5        -488.5784  -319.1525   570.4143 C5            1 RES     
   20161 C5        -487.2274  -319.8838   570.1404 C5            1 RES     
   20162 C5        -486.6683  -320.7756   571.2916 C5            1 RES     
   20163 C5        -487.6508  -321.9161   571.6876 C5            1 RES     
   20164 C5        -487.4334  -322.4062   573.1313 C5            1 RES     
   20165 C5        -488.6864  -323.1217   573.6802 C5            1 RES     
   20166 C5        -488.5709  -323.3506   575.1981 C5            1 RES     
   20167 C5        -489.8960  -323.7819   575.8518 C5            1 RES     
   20168 C5        -490.3932  -325.1481   575.3925 C5            1 RES     
   20169 C5        -485.2485  -321.2677   570.8597 C5            1 RES     
   20170 C0        -484.1547  -321.9385   571.7770 C0            1 RES     
   20171 C5        -483.1177  -322.5923   570.7641 C5            1 RES     
   20172 C5        -483.2529  -324.1431   570.5993 C5            1 RES     
   20173 C5        -482.4656  -324.9600   571.6763 C5            1 RES     
   20174 C5        -480.9300  -324.9982   571.4942 C5            1 RES     
   20175 C5        -480.1687  -325.6500   572.6628 C5            1 RES     
   20176 C5        -480.3297  -327.1770   572.7889 C5            1 RES     
   20177 C5        -479.7991  -327.9921   571.5897 C5            1 RES     
   20178 C5        -478.3052  -327.7825   571.3210 C5            1 RES     
   20179 C5        -482.9872  -324.6455   569.1411 C5            1 RES     
   20180 C5        -481.7514  -324.0768   568.3969 C5            1 RES     
   20181 C5        -481.4627  -324.7946   567.0590 C5            1 RES     
   20182 C5        -482.6153  -324.7181   566.0397 C5            1 RES     
   20183 C5        -482.3025  -325.4311   564.7086 C5            1 RES     
   20184 C5        -481.1850  -324.7489   563.8959 C5            1 RES     
   20185 C5        -480.8717  -325.4618   562.5681 C5            1 RES     
   20186 C5        -482.0383  -325.4622   561.5791 C5            1 RES     
   20187 H6        -489.1584  -312.8759   571.7716 H6            1 RES     
   20188 H6        -488.7365  -311.5987   572.9574 H6            1 RES     
   20189 H6        -489.6507  -313.0528   573.5076 H6            1 RES     
   20190 H6        -486.7418  -313.0098   572.4460 H6            1 RES     
   20191 H6        -487.2357  -313.1122   574.1738 H6            1 RES     
   20192 H6        -486.6010  -315.3220   573.3537 H6            1 RES     
   20193 H6        -488.3446  -315.2827   573.7974 H6            1 RES     
   20194 H6        -487.2354  -315.0961   570.9025 H6            1 RES     
   20195 H6        -488.9763  -315.1158   571.3945 H6            1 RES     
   20196 H6        -486.9208  -317.3750   571.8608 H6            1 RES     
   20197 H6        -488.6278  -317.3346   572.4798 H6            1 RES     
   20198 H6        -489.5536  -317.2314   570.2763 H6            1 RES     
   20199 H6        -487.9457  -317.2680   569.4750 H6            1 RES     
   20200 H6        -489.0638  -319.4490   571.3660 H6            1 RES     
   20201 H6        -489.2658  -319.4661   569.6001 H6            1 RES     
   20202 H6        -486.4725  -319.1004   569.9042 H6            1 RES     
   20203 H6        -487.3260  -320.4969   569.2184 H6            1 RES     
   20204 H6        -486.6296  -320.0883   572.1068 H6            1 RES     
   20205 H6        -488.6683  -321.4890   571.6861 H6            1 RES     
   20206 H6        -487.6703  -322.7455   570.9479 H6            1 RES     
   20207 H6        -486.5192  -323.0310   573.2156 H6            1 RES     
   20208 H6        -487.3042  -321.5050   573.7666 H6            1 RES     
   20209 H6        -488.8682  -324.0726   573.1350 H6            1 RES     
   20210 H6        -489.5609  -322.4519   573.5226 H6            1 RES     
   20211 H6        -487.7641  -324.0813   575.4181 H6            1 RES     
   20212 H6        -488.3003  -322.3817   575.6749 H6            1 RES     
   20213 H6        -490.6788  -323.0180   575.6460 H6            1 RES     
   20214 H6        -489.7438  -323.8222   576.9523 H6            1 RES     
   20215 H6        -489.6377  -325.9271   575.6253 H6            1 RES     
   20216 H6        -490.6095  -325.1482   574.3048 H6            1 RES     
   20217 H6        -491.3334  -325.3920   575.9325 H6            1 RES     
   20218 H6        -484.7141  -320.4021   570.4086 H6            1 RES     
   20219 H6        -485.4734  -321.9786   570.0306 H6            1 RES     
   20220 H6        -483.2787  -322.1301   569.7675 H6            1 RES     
   20221 H6        -482.0698  -322.3130   570.9410 H6            1 RES     
   20222 H6        -484.3262  -324.3860   570.7748 H6            1 RES     
   20223 H6        -482.7174  -324.5406   572.6745 H6            1 RES     
   20224 H6        -482.8238  -326.0116   571.6559 H6            1 RES     
   20225 H6        -480.6548  -325.5324   570.5684 H6            1 RES     
   20226 H6        -480.5598  -323.9665   571.4043 H6            1 RES     
   20227 H6        -479.0878  -325.4243   572.5476 H6            1 RES     
   20228 H6        -480.4917  -325.1750   573.6110 H6            1 RES     
   20229 H6        -481.3996  -327.4243   572.9492 H6            1 RES     
   20230 H6        -479.7720  -327.5022   573.6947 H6            1 RES     
   20231 H6        -480.3733  -327.7574   570.6702 H6            1 RES     
   20232 H6        -479.9564  -329.0691   571.8149 H6            1 RES     
   20233 H6        -477.7083  -328.0318   572.2241 H6            1 RES     
   20234 H6        -477.9814  -328.4445   570.4902 H6            1 RES     
   20235 H6        -478.0937  -326.7371   571.0166 H6            1 RES     
   20236 H6        -483.8672  -324.3511   568.5308 H6            1 RES     
   20237 H6        -482.9563  -325.7568   569.1596 H6            1 RES     
   20238 H6        -480.8309  -324.1675   568.9911 H6            1 RES     
   20239 H6        -481.8941  -322.9949   568.2029 H6            1 RES     
   20240 H6        -480.5565  -324.3183   566.6314 H6            1 RES     
   20241 H6        -481.2285  -325.8627   567.2633 H6            1 RES     
   20242 H6        -482.8794  -323.6574   565.8385 H6            1 RES     
   20243 H6        -483.5027  -325.2251   566.4727 H6            1 RES     
   20244 H6        -482.0341  -326.4917   564.9092 H6            1 RES     
   20245 H6        -483.2364  -325.4166   564.1095 H6            1 RES     
   20246 H6        -480.2461  -324.7501   564.4857 H6            1 RES     
   20247 H6        -481.4665  -323.6934   563.6880 H6            1 RES     
   20248 H6        -480.0208  -324.9311   562.0876 H6            1 RES     
   20249 H6        -480.5561  -326.5089   562.7675 H6            1 RES     
   20250 H6        -482.8996  -326.0387   561.9723 H6            1 RES     
   20251 H6        -481.7151  -325.9424   560.6312 H6            1 RES     
   20252 H6        -482.3573  -324.4218   561.3580 H6            1 RES     
   20253 C0        -492.6568  -313.3991   576.5703 C0            1 RES     
   20254 C0        -493.1350  -313.0733   577.9856 C0            1 RES     
   20255 C0        -492.7462  -314.0224   578.8706 C0            1 RES     
   20256 S1        -493.1917  -313.6818   580.4477 S1            1 RES     
   20257 C0        -493.9373  -312.2165   580.0016 C0            1 RES     
   20258 C0        -493.7686  -312.0080   578.6222 C0            1 RES     
   20259 C0        -491.9091  -314.9670   578.2152 C0            1 RES     
   20260 C0        -491.7890  -314.6066   576.9573 C0            1 RES     
   20261 C0        -490.7423  -315.3544   576.2856 C0            1 RES     
   20262 C0        -490.1664  -316.2716   577.1514 C0            1 RES     
   20263 S1        -490.8759  -316.2921   578.8105 S1            1 RES     
   20264 H2        -494.0506  -311.0937   578.1452 H2            1 RES     
   20265 H2        -490.3492  -315.1394   575.3069 H2            1 RES     
   20266 N3        -496.2380  -309.4741   581.1745 N3            1 RES     
   20267 C0        -495.5636  -310.3522   580.3786 C0            1 RES     
   20268 C0        -494.6365  -311.2702   580.9119 C0            1 RES     
   20269 C0        -494.4486  -311.2471   582.3038 C0            1 RES     
   20270 N3        -493.5925  -312.0600   582.9786 N3            1 RES     
   20271 S1        -493.7787  -311.5564   584.5428 S1            1 RES     
   20272 N3        -494.8994  -310.3475   584.4400 N3            1 RES     
   20273 C0        -495.1572  -310.3141   583.1073 C0            1 RES     
   20274 C0        -496.0550  -309.4306   582.5226 C0            1 RES     
   20275 H4        -495.7777  -310.3552   579.3244 H4            1 RES     
   20276 C5        -494.9649  -304.3405   579.7388 C5            1 RES     
   20277 C5        -493.9128  -305.4384   579.5747 C5            1 RES     
   20278 C5        -494.4981  -306.7994   579.1579 C5            1 RES     
   20279 C5        -495.2124  -306.7868   577.7920 C5            1 RES     
   20280 C5        -495.7158  -308.1963   577.4360 C5            1 RES     
   20281 C5        -496.6194  -308.2087   576.1948 C5            1 RES     
   20282 C5        -497.1893  -309.6148   575.8913 C5            1 RES     
   20283 C5        -496.2101  -310.5829   575.1570 C5            1 RES     
   20284 C5        -495.8231  -311.8920   575.9117 C5            1 RES     
   20285 C5        -497.0627  -312.7740   576.2412 C5            1 RES     
   20286 C5        -496.8201  -313.7056   577.4434 C5            1 RES     
   20287 C5        -498.1495  -314.1678   578.0777 C5            1 RES     
   20288 C5        -497.9049  -314.8536   579.4340 C5            1 RES     
   20289 C5        -499.1925  -315.0665   580.2501 C5            1 RES     
   20290 C5        -500.1742  -316.0409   579.6086 C5            1 RES     
   20291 C5        -494.7226  -312.6147   575.0684 C5            1 RES     
   20292 C0        -493.7963  -313.8038   575.5330 C0            1 RES     
   20293 C5        -493.1879  -314.3965   574.1886 C5            1 RES     
   20294 C5        -493.8519  -315.7276   573.7010 C5            1 RES     
   20295 C5        -493.2376  -317.0108   574.3516 C5            1 RES     
   20296 C5        -491.8434  -317.4242   573.8245 C5            1 RES     
   20297 C5        -491.1857  -318.5760   574.6061 C5            1 RES     
   20298 C5        -491.8250  -319.9632   574.4051 C5            1 RES     
   20299 C5        -491.7687  -320.5064   572.9609 C5            1 RES     
   20300 C5        -490.3433  -320.6563   572.4191 C5            1 RES     
   20301 C5        -493.9752  -315.8348   572.1445 C5            1 RES     
   20302 C5        -492.7380  -315.4447   571.2950 C5            1 RES     
   20303 C5        -492.8946  -315.7905   569.7969 C5            1 RES     
   20304 C5        -494.0872  -315.0981   569.1102 C5            1 RES     
   20305 C5        -494.2188  -315.4482   567.6142 C5            1 RES     
   20306 C5        -493.0638  -314.9011   566.7530 C5            1 RES     
   20307 C5        -493.1943  -315.2523   565.2599 C5            1 RES     
   20308 C5        -494.4213  -314.6351   564.5872 C5            1 RES     
   20309 H6        -495.4568  -304.1125   578.7716 H6            1 RES     
   20310 H6        -494.4731  -303.4108   580.0966 H6            1 RES     
   20311 H6        -495.7314  -304.6437   580.4833 H6            1 RES     
   20312 H6        -493.1524  -305.1117   578.8339 H6            1 RES     
   20313 H6        -493.4049  -305.5721   580.5555 H6            1 RES     
   20314 H6        -493.6612  -307.5301   579.1208 H6            1 RES     
   20315 H6        -495.2125  -307.1337   579.9424 H6            1 RES     
   20316 H6        -494.5218  -306.4280   576.9978 H6            1 RES     
   20317 H6        -496.0832  -306.1005   577.8508 H6            1 RES     
   20318 H6        -494.8503  -308.8797   577.3012 H6            1 RES     
   20319 H6        -496.3424  -308.5438   578.2806 H6            1 RES     
   20320 H6        -497.4807  -307.5444   576.4291 H6            1 RES     
   20321 H6        -496.1054  -307.7955   575.3003 H6            1 RES     
   20322 H6        -497.6071  -310.0278   576.8315 H6            1 RES     
   20323 H6        -498.0487  -309.4699   575.2027 H6            1 RES     
   20324 H6        -495.2791  -310.0101   574.9465 H6            1 RES     
   20325 H6        -496.6349  -310.8457   574.1639 H6            1 RES     
   20326 H6        -495.4446  -311.5134   576.8346 H6            1 RES     
   20327 H6        -497.8703  -312.0971   576.5688 H6            1 RES     
   20328 H6        -497.4598  -313.3102   575.3522 H6            1 RES     
   20329 H6        -496.1628  -314.5584   577.1713 H6            1 RES     
   20330 H6        -496.3115  -313.1042   578.2257 H6            1 RES     
   20331 H6        -498.7111  -314.8262   577.3809 H6            1 RES     
   20332 H6        -498.7651  -313.2636   578.2820 H6            1 RES     
   20333 H6        -497.3640  -315.8128   579.2897 H6            1 RES     
   20334 H6        -497.2641  -314.1838   580.0504 H6            1 RES     
   20335 H6        -499.6981  -314.0880   580.4102 H6            1 RES     
   20336 H6        -498.9096  -315.4682   581.2473 H6            1 RES     
   20337 H6        -499.6953  -317.0335   579.4766 H6            1 RES     
   20338 H6        -500.5284  -315.6620   578.6285 H6            1 RES     
   20339 H6        -501.0564  -316.1575   580.2742 H6            1 RES     
   20340 H6        -494.0000  -311.8418   574.7235 H6            1 RES     
   20341 H6        -495.2846  -312.9585   574.1688 H6            1 RES     
   20342 H6        -493.3245  -313.6372   573.3902 H6            1 RES     
   20343 H6        -492.0930  -314.4877   574.1851 H6            1 RES     
   20344 H6        -494.9091  -315.6991   574.0521 H6            1 RES     
   20345 H6        -493.1933  -316.8488   575.4505 H6            1 RES     
   20346 H6        -493.9236  -317.8651   574.1674 H6            1 RES     
   20347 H6        -491.8937  -317.7188   572.7620 H6            1 RES     
   20348 H6        -491.1682  -316.5590   573.8970 H6            1 RES     
   20349 H6        -490.1186  -318.6399   574.3063 H6            1 RES     
   20350 H6        -491.1964  -318.3284   575.6868 H6            1 RES     
   20351 H6        -492.8826  -319.9353   574.7400 H6            1 RES     
   20352 H6        -491.2856  -320.6823   575.0603 H6            1 RES     
   20353 H6        -492.3554  -319.8614   572.2753 H6            1 RES     
   20354 H6        -492.2413  -321.5123   572.9577 H6            1 RES     
   20355 H6        -489.7426  -321.3163   573.0806 H6            1 RES     
   20356 H6        -490.3774  -321.1093   571.4057 H6            1 RES     
   20357 H6        -489.8416  -319.6712   572.3277 H6            1 RES     
   20358 H6        -494.7840  -315.1396   571.8342 H6            1 RES     
   20359 H6        -494.3127  -316.8645   571.8955 H6            1 RES     
   20360 H6        -491.8261  -315.9604   571.6285 H6            1 RES     
   20361 H6        -492.5392  -314.3591   571.3964 H6            1 RES     
   20362 H6        -491.9511  -315.4848   569.2995 H6            1 RES     
   20363 H6        -493.0019  -316.8922   569.6878 H6            1 RES     
   20364 H6        -494.0098  -313.9955   569.2271 H6            1 RES     
   20365 H6        -495.0226  -315.4387   569.6012 H6            1 RES     
   20366 H6        -494.2922  -316.5517   567.4957 H6            1 RES     
   20367 H6        -495.1691  -314.9970   567.2612 H6            1 RES     
   20368 H6        -492.1057  -315.3388   567.0991 H6            1 RES     
   20369 H6        -493.0053  -313.7965   566.8663 H6            1 RES     
   20370 H6        -492.2918  -314.8658   564.7378 H6            1 RES     
   20371 H6        -493.2195  -316.3562   565.1329 H6            1 RES     
   20372 H6        -495.3611  -315.0349   565.0185 H6            1 RES     
   20373 H6        -494.4121  -314.8875   563.5056 H6            1 RES     
   20374 H6        -494.4046  -313.5299   564.6929 H6            1 RES     
   20375 C0        -498.2211  -305.0112   583.9765 C0            1 RES     
   20376 C0        -498.3606  -304.9931   585.4990 C0            1 RES     
   20377 C0        -498.1889  -306.2288   586.0269 C0            1 RES     
   20378 S1        -498.2703  -306.2538   587.6986 S1            1 RES     
   20379 C0        -498.5420  -304.5744   587.7869 C0            1 RES     
   20380 C0        -498.5088  -304.0276   586.4927 C0            1 RES     
   20381 C0        -497.8134  -307.1357   584.9978 C0            1 RES     
   20382 C0        -497.7581  -306.4720   583.8651 C0            1 RES     
   20383 C0        -497.1241  -307.2532   582.8193 C0            1 RES     
   20384 C0        -496.7698  -308.5068   583.2944 C0            1 RES     
   20385 S1        -497.2059  -308.8115   585.0187 S1            1 RES     
   20386 H2        -498.5354  -302.9730   586.3187 H2            1 RES     
   20387 H2        -496.8232  -306.8808   581.8552 H2            1 RES     
   20388 N3        -499.6136  -301.7642   590.0550 N3            1 RES     
   20389 C0        -499.3874  -302.5235   588.9452 C0            1 RES     
   20390 C0        -498.7525  -303.7792   589.0264 C0            1 RES     
   20391 C0        -498.3744  -304.2183   590.3061 C0            1 RES     
   20392 N3        -497.7510  -305.3994   590.5617 N3            1 RES     
   20393 S1        -497.5383  -305.3445   592.2007 S1            1 RES     
   20394 N3        -498.1969  -303.8945   592.6384 N3            1 RES     
   20395 C0        -498.6131  -303.4014   591.4436 C0            1 RES     
   20396 C0        -499.2394  -302.1704   591.2991 C0            1 RES     
   20397 H4        -499.7360  -302.1575   587.9956 H4            1 RES     
   20398 C5        -496.9234  -297.0103   589.6092 C5            1 RES     
   20399 C5        -496.3294  -298.2615   588.9605 C5            1 RES     
   20400 C5        -497.3855  -299.2188   588.3803 C5            1 RES     
   20401 C5        -498.2391  -298.6067   587.2521 C5            1 RES     
   20402 C5        -499.2265  -299.6492   586.6996 C5            1 RES     
   20403 C5        -500.2475  -299.0432   585.7262 C5            1 RES     
   20404 C5        -501.2884  -300.0793   585.2391 C5            1 RES     
   20405 C5        -500.7992  -301.0245   584.0979 C5            1 RES     
   20406 C5        -500.7669  -302.5507   584.4188 C5            1 RES     
   20407 C5        -502.1698  -303.1046   584.8037 C5            1 RES     
   20408 C5        -502.0841  -304.3760   585.6687 C5            1 RES     
   20409 C5        -503.3887  -304.6103   586.4602 C5            1 RES     
   20410 C5        -503.1979  -305.7027   587.5278 C5            1 RES     
   20411 C5        -504.3553  -305.7741   588.5401 C5            1 RES     
   20412 C5        -505.6844  -306.2008   587.9269 C5            1 RES     
   20413 C5        -500.0984  -303.2738   583.2045 C5            1 RES     
   20414 C0        -499.5638  -304.7570   583.1576 C0            1 RES     
   20415 C5        -499.3815  -305.0764   581.6104 C5            1 RES     
   20416 C5        -500.5111  -305.9635   580.9879 C5            1 RES     
   20417 C5        -500.2727  -307.4994   581.1653 C5            1 RES     
   20418 C5        -499.1832  -308.1151   580.2561 C5            1 RES     
   20419 C5        -498.8424  -309.5814   580.5782 C5            1 RES     
   20420 C5        -499.9274  -310.6106   580.2081 C5            1 RES     
   20421 C5        -500.2576  -310.7003   578.7024 C5            1 RES     
   20422 C5        -499.0536  -311.0796   577.8339 C5            1 RES     
   20423 C5        -500.8799  -305.5713   579.5184 C5            1 RES     
   20424 C5        -499.7154  -305.3142   578.5273 C5            1 RES     
   20425 C5        -500.1863  -305.1477   577.0647 C5            1 RES     
   20426 C5        -501.1653  -303.9787   576.8455 C5            1 RES     
   20427 C5        -501.6140  -303.8239   575.3783 C5            1 RES     
   20428 C5        -500.4757  -303.3966   574.4313 C5            1 RES     
   20429 C5        -500.9234  -303.2439   572.9665 C5            1 RES     
   20430 C5        -501.9575  -302.1380   572.7506 C5            1 RES     
   20431 H6        -497.4422  -296.3805   588.8584 H6            1 RES     
   20432 H6        -496.1059  -296.4035   590.0539 H6            1 RES     
   20433 H6        -497.6347  -297.2897   590.4152 H6            1 RES     
   20434 H6        -495.6155  -297.9600   588.1648 H6            1 RES     
   20435 H6        -495.7624  -298.8135   589.7427 H6            1 RES     
   20436 H6        -496.8525  -300.1111   587.9860 H6            1 RES     
   20437 H6        -498.0529  -299.5530   589.2052 H6            1 RES     
   20438 H6        -497.5872  -298.2406   586.4292 H6            1 RES     
   20439 H6        -498.8155  -297.7518   587.6642 H6            1 RES     
   20440 H6        -498.6648  -300.4777   586.2175 H6            1 RES     
   20441 H6        -499.8079  -300.0378   587.5585 H6            1 RES     
   20442 H6        -500.7977  -298.2625   586.2970 H6            1 RES     
   20443 H6        -499.7563  -298.5484   584.8609 H6            1 RES     
   20444 H6        -501.6833  -300.6144   586.1261 H6            1 RES     
   20445 H6        -502.1385  -299.5036   584.8152 H6            1 RES     
   20446 H6        -499.7701  -300.7012   583.8228 H6            1 RES     
   20447 H6        -501.4219  -300.8547   583.1929 H6            1 RES     
   20448 H6        -500.1587  -302.5811   585.2950 H6            1 RES     
   20449 H6        -502.6525  -302.3548   585.4536 H6            1 RES     
   20450 H6        -502.8428  -303.2228   583.9271 H6            1 RES     
   20451 H6        -501.7922  -305.2606   585.0640 H6            1 RES     
   20452 H6        -501.3003  -304.1983   586.4345 H6            1 RES     
   20453 H6        -504.2288  -304.8502   585.7738 H6            1 RES     
   20454 H6        -503.6342  -303.6706   587.0033 H6            1 RES     
   20455 H6        -503.0320  -306.6892   587.0455 H6            1 RES     
   20456 H6        -502.2914  -305.4511   588.1229 H6            1 RES     
   20457 H6        -504.4797  -304.7844   589.0340 H6            1 RES     
   20458 H6        -504.0849  -306.5126   589.3258 H6            1 RES     
   20459 H6        -505.5856  -307.2041   587.4623 H6            1 RES     
   20460 H6        -506.0265  -305.4681   587.1681 H6            1 RES     
   20461 H6        -506.4528  -306.2541   588.7280 H6            1 RES     
   20462 H6        -499.2162  -302.6697   582.8959 H6            1 RES     
   20463 H6        -500.8629  -303.1668   582.3999 H6            1 RES     
   20464 H6        -499.3688  -304.1104   581.0633 H6            1 RES     
   20465 H6        -498.3908  -305.4666   581.3392 H6            1 RES     
   20466 H6        -501.4386  -305.7429   581.5648 H6            1 RES     
   20467 H6        -500.0235  -307.6854   582.2325 H6            1 RES     
   20468 H6        -501.2220  -308.0334   580.9460 H6            1 RES     
   20469 H6        -499.4769  -308.0593   579.1935 H6            1 RES     
   20470 H6        -498.2560  -307.5354   580.3746 H6            1 RES     
   20471 H6        -497.9102  -309.8522   580.0393 H6            1 RES     
   20472 H6        -498.6187  -309.6684   581.6606 H6            1 RES     
   20473 H6        -500.8577  -310.3857   580.7696 H6            1 RES     
   20474 H6        -499.5710  -311.6112   580.5384 H6            1 RES     
   20475 H6        -500.6869  -309.7452   578.3368 H6            1 RES     
   20476 H6        -501.0328  -311.4859   578.5710 H6            1 RES     
   20477 H6        -498.6196  -312.0453   578.1702 H6            1 RES     
   20478 H6        -499.3779  -311.1875   576.7772 H6            1 RES     
   20479 H6        -498.2715  -310.2936   577.8645 H6            1 RES     
   20480 H6        -501.4471  -304.6178   579.5694 H6            1 RES     
   20481 H6        -501.5714  -306.3447   579.1183 H6            1 RES     
   20482 H6        -498.9892  -306.1394   578.5168 H6            1 RES     
   20483 H6        -499.1555  -304.4075   578.8319 H6            1 RES     
   20484 H6        -499.2745  -304.9881   576.4531 H6            1 RES     
   20485 H6        -500.6674  -306.0926   576.7284 H6            1 RES     
   20486 H6        -500.7107  -303.0269   577.1961 H6            1 RES     
   20487 H6        -502.0821  -304.1706   577.4412 H6            1 RES     
   20488 H6        -502.0654  -304.7771   575.0251 H6            1 RES     
   20489 H6        -502.4003  -303.0410   575.3639 H6            1 RES     
   20490 H6        -499.6787  -304.1673   574.4406 H6            1 RES     
   20491 H6        -500.0387  -302.4366   574.7833 H6            1 RES     
   20492 H6        -500.0264  -302.9917   572.3595 H6            1 RES     
   20493 H6        -501.3311  -304.2086   572.5942 H6            1 RES     
   20494 H6        -502.9063  -302.3653   573.2769 H6            1 RES     
   20495 H6        -502.1843  -302.0547   571.6665 H6            1 RES     
   20496 H6        -501.5602  -301.1635   573.1050 H6            1 RES     
   20497 C0        -499.5893  -297.9476   594.1945 C0            1 RES     
   20498 C0        -499.5000  -298.3374   595.6703 C0            1 RES     
   20499 C0        -499.6759  -299.6696   595.8423 C0            1 RES     
   20500 S1        -499.5258  -300.1587   597.4360 S1            1 RES     
   20501 C0        -499.2095  -298.5732   597.9730 C0            1 RES     
   20502 C0        -499.1785  -297.7041   596.8691 C0            1 RES     
   20503 C0        -499.7710  -300.3029   594.5725 C0            1 RES     
   20504 C0        -499.6579  -299.3804   593.6436 C0            1 RES     
   20505 C0        -499.4724  -299.9666   592.3292 C0            1 RES     
   20506 C0        -499.4914  -301.3509   592.4059 C0            1 RES     
   20507 S1        -499.7575  -302.0114   594.0640 S1            1 RES     
   20508 H2        -498.8776  -296.6819   596.9567 H2            1 RES     
   20509 H2        -499.2033  -299.4287   591.4364 H2            1 RES     
   20510 N3        -498.9584  -296.3673   601.0161 N3            1 RES     
   20511 C0        -499.1550  -296.8001   599.7381 C0            1 RES     
   20512 C0        -498.9681  -298.1500   599.3785 C0            1 RES     
   20513 C0        -498.5818  -299.0321   600.4013 C0            1 RES     
   20514 N3        -498.3564  -300.3617   600.2267 N3            1 RES     
   20515 S1        -497.9099  -300.8510   601.7420 S1            1 RES     
   20516 N3        -497.9817  -299.4686   602.6430 N3            1 RES     
   20517 C0        -498.3738  -298.5513   601.7218 C0            1 RES     
   20518 C0        -498.5697  -297.2078   602.0137 C0            1 RES     
   20519 H4        -499.4918  -296.0897   599.0038 H4            1 RES     
   20520 C5        -494.9335  -292.6485   601.0987 C5            1 RES     
   20521 C5        -494.8856  -293.7692   600.0590 C5            1 RES     
   20522 C5        -496.2699  -294.1774   599.5245 C5            1 RES     
   20523 C5        -497.0213  -293.0478   598.7927 C5            1 RES     
   20524 C5        -498.3658  -293.5613   598.2490 C5            1 RES     
   20525 C5        -499.2535  -292.4355   597.6998 C5            1 RES     
   20526 C5        -500.6367  -292.9471   597.2315 C5            1 RES     
   20527 C5        -500.6541  -293.6146   595.8212 C5            1 RES     
   20528 C5        -501.0855  -295.1124   595.7610 C5            1 RES     
   20529 C5        -502.5240  -295.3369   596.3117 C5            1 RES     
   20530 C5        -502.7448  -296.7761   596.8136 C5            1 RES     
   20531 C5        -503.9286  -296.8549   597.8014 C5            1 RES     
   20532 C5        -503.9635  -298.2195   598.5132 C5            1 RES     
   20533 C5        -504.9249  -298.2555   599.7148 C5            1 RES     
   20534 C5        -506.3924  -298.0923   599.3345 C5            1 RES     
   20535 C5        -500.8721  -295.6060   594.2929 C5            1 RES     
   20536 C0        -500.8723  -297.0982   593.7817 C0            1 RES     
   20537 C5        -501.0252  -296.9886   592.2026 C5            1 RES     
   20538 C5        -502.4606  -297.2996   591.6610 C5            1 RES     
   20539 C5        -502.7232  -298.8222   591.4164 C5            1 RES     
   20540 C5        -502.0386  -299.4252   590.1671 C5            1 RES     
   20541 C5        -502.1622  -300.9555   590.0526 C5            1 RES     
   20542 C5        -503.5678  -301.4827   589.7065 C5            1 RES     
   20543 C5        -504.1168  -301.0312   588.3358 C5            1 RES     
   20544 C5        -503.2413  -301.4622   587.1545 C5            1 RES     
   20545 C5        -502.8805  -296.4074   590.4457 C5            1 RES     
   20546 C5        -501.8479  -296.2098   589.3059 C5            1 RES     
   20547 C5        -502.4369  -295.4973   588.0674 C5            1 RES     
   20548 C5        -502.9929  -294.0894   588.3537 C5            1 RES     
   20549 C5        -503.5658  -293.3924   587.1031 C5            1 RES     
   20550 C5        -502.4950  -293.0448   586.0508 C5            1 RES     
   20551 C5        -503.0672  -292.3508   584.8016 C5            1 RES     
   20552 C5        -503.6951  -290.9860   585.0887 C5            1 RES     
   20553 H6        -495.3138  -291.7073   600.6525 H6            1 RES     
   20554 H6        -493.9073  -292.4539   601.4769 H6            1 RES     
   20555 H6        -495.5768  -292.9397   601.9561 H6            1 RES     
   20556 H6        -494.2312  -293.4615   599.2160 H6            1 RES     
   20557 H6        -494.4303  -294.6621   600.5423 H6            1 RES     
   20558 H6        -496.1242  -295.0274   598.8231 H6            1 RES     
   20559 H6        -496.8878  -294.5366   600.3771 H6            1 RES     
   20560 H6        -496.4070  -292.6557   597.9529 H6            1 RES     
   20561 H6        -497.2174  -292.2250   599.5120 H6            1 RES     
   20562 H6        -498.1844  -294.3354   597.4730 H6            1 RES     
   20563 H6        -498.9167  -294.0043   599.1017 H6            1 RES     
   20564 H6        -499.4276  -291.7342   598.5460 H6            1 RES     
   20565 H6        -498.7524  -291.8682   596.8862 H6            1 RES     
   20566 H6        -501.0584  -293.5848   598.0346 H6            1 RES     
   20567 H6        -501.2981  -292.0580   597.1566 H6            1 RES     
   20568 H6        -499.6254  -293.5280   595.4046 H6            1 RES     
   20569 H6        -501.3055  -293.0195   595.1450 H6            1 RES     
   20570 H6        -500.4054  -295.5677   596.4456 H6            1 RES     
   20571 H6        -502.6343  -294.7060   597.2103 H6            1 RES     
   20572 H6        -503.3140  -294.9991   595.6065 H6            1 RES     
   20573 H6        -502.8509  -297.4897   595.9693 H6            1 RES     
   20574 H6        -501.8473  -297.0582   597.4030 H6            1 RES     
   20575 H6        -504.8881  -296.6372   597.2855 H6            1 RES     
   20576 H6        -503.7695  -296.0860   598.5900 H6            1 RES     
   20577 H6        -504.2037  -299.0266   597.7892 H6            1 RES     
   20578 H6        -502.9510  -298.4185   598.9307 H6            1 RES     
   20579 H6        -504.6433  -297.4605   600.4411 H6            1 RES     
   20580 H6        -504.8076  -299.2364   600.2246 H6            1 RES     
   20581 H6        -506.6983  -298.9010   598.6385 H6            1 RES     
   20582 H6        -506.5747  -297.1043   598.8649 H6            1 RES     
   20583 H6        -507.0145  -298.1593   600.2529 H6            1 RES     
   20584 H6        -499.8920  -295.2117   593.9434 H6            1 RES     
   20585 H6        -501.6626  -295.0578   593.7290 H6            1 RES     
   20586 H6        -500.7694  -295.9491   591.9078 H6            1 RES     
   20587 H6        -500.2686  -297.5444   591.6317 H6            1 RES     
   20588 H6        -503.1718  -297.0060   592.4671 H6            1 RES     
   20589 H6        -502.4028  -299.3746   592.3263 H6            1 RES     
   20590 H6        -503.8167  -298.9792   591.2981 H6            1 RES     
   20591 H6        -502.4431  -298.9807   589.2413 H6            1 RES     
   20592 H6        -500.9648  -299.1908   590.2058 H6            1 RES     
   20593 H6        -501.4581  -301.3074   589.2696 H6            1 RES     
   20594 H6        -501.8307  -301.4146   591.0057 H6            1 RES     
   20595 H6        -504.2823  -301.1799   590.4998 H6            1 RES     
   20596 H6        -503.5212  -302.5941   589.7050 H6            1 RES     
   20597 H6        -504.2515  -299.9306   588.3097 H6            1 RES     
   20598 H6        -505.1190  -301.4928   588.2027 H6            1 RES     
   20599 H6        -503.1098  -302.5653   587.1493 H6            1 RES     
   20600 H6        -503.7277  -301.1604   586.2028 H6            1 RES     
   20601 H6        -502.2465  -300.9728   587.1908 H6            1 RES     
   20602 H6        -503.0860  -295.3914   590.8444 H6            1 RES     
   20603 H6        -503.8384  -296.8027   590.0424 H6            1 RES     
   20604 H6        -501.4458  -297.1652   588.9397 H6            1 RES     
   20605 H6        -500.9819  -295.6277   589.6797 H6            1 RES     
   20606 H6        -501.6191  -295.4288   587.3208 H6            1 RES     
   20607 H6        -503.2465  -296.1271   587.6370 H6            1 RES     
   20608 H6        -502.2039  -293.4500   588.8052 H6            1 RES     
   20609 H6        -503.8283  -294.1813   589.0788 H6            1 RES     
   20610 H6        -504.3528  -294.0333   586.6481 H6            1 RES     
   20611 H6        -504.0414  -292.4515   587.4494 H6            1 RES     
   20612 H6        -502.0060  -293.9761   585.7000 H6            1 RES     
   20613 H6        -501.7193  -292.3934   586.5094 H6            1 RES     
   20614 H6        -502.2320  -292.1948   584.0844 H6            1 RES     
   20615 H6        -503.8200  -293.0089   584.3160 H6            1 RES     
   20616 H6        -504.5819  -291.0810   585.7472 H6            1 RES     
   20617 H6        -504.0311  -290.5289   584.1338 H6            1 RES     
   20618 H6        -502.9514  -290.3108   585.5620 H6            1 RES     
   20619 C0        -497.0887  -294.0973   605.8174 C0            1 RES     
   20620 C0        -496.9278  -294.9105   607.1023 C0            1 RES     
   20621 C0        -497.5099  -296.1289   606.9935 C0            1 RES     
   20622 S1        -497.3087  -297.0845   608.3529 S1            1 RES     
   20623 C0        -496.4122  -295.8816   609.1598 C0            1 RES     
   20624 C0        -496.2496  -294.7729   608.3117 C0            1 RES     
   20625 C0        -497.9868  -296.3094   605.6659 C0            1 RES     
   20626 C0        -497.7054  -295.2263   604.9772 C0            1 RES     
   20627 C0        -497.9112  -295.4295   603.5552 C0            1 RES     
   20628 C0        -498.3776  -296.7119   603.3088 C0            1 RES     
   20629 S1        -498.6126  -297.7259   604.7828 S1            1 RES     
   20630 H2        -495.6174  -293.9489   608.5655 H2            1 RES     
   20631 H2        -497.6069  -294.7524   602.7758 H2            1 RES     
   20632 N3        -495.0191  -294.8266   612.4969 N3            1 RES     
   20633 C0        -495.5254  -294.7928   611.2313 C0            1 RES     
   20634 C0        -495.8495  -295.9740   610.5338 C0            1 RES     
   20635 C0        -495.6385  -297.1881   611.2082 C0            1 RES     
   20636 N3        -495.8940  -298.4155   610.6818 N3            1 RES     
   20637 S1        -495.4275  -299.4317   611.9002 S1            1 RES     
   20638 N3        -494.9093  -298.4117   613.0915 N3            1 RES     
   20639 C0        -495.0998  -297.1935   612.5227 C0            1 RES     
   20640 C0        -494.7957  -295.9960   613.1567 C0            1 RES     
   20641 H4        -495.7068  -293.8341   610.7785 H4            1 RES     
   20642 C5        -490.0187  -292.5837   612.5369 C5            1 RES     
   20643 C5        -490.4918  -293.3173   611.2810 C5            1 RES     
   20644 C5        -491.9936  -293.1446   610.9919 C5            1 RES     
   20645 C5        -492.4221  -291.6868   610.7328 C5            1 RES     
   20646 C5        -493.9230  -291.6189   610.4014 C5            1 RES     
   20647 C5        -494.4545  -290.1797   610.3449 C5            1 RES     
   20648 C5        -495.9802  -290.1214   610.0940 C5            1 RES     
   20649 C5        -496.4158  -290.3138   608.6080 C5            1 RES     
   20650 C5        -497.3237  -291.5438   608.2984 C5            1 RES     
   20651 C5        -498.6629  -291.5056   609.0910 C5            1 RES     
   20652 C5        -499.2762  -292.9057   609.2793 C5            1 RES     
   20653 C5        -500.2681  -292.9340   610.4619 C5            1 RES     
   20654 C5        -500.6538  -294.3795   610.8244 C5            1 RES     
   20655 C5        -501.3941  -294.4937   612.1691 C5            1 RES     
   20656 C5        -502.7621  -293.8207   612.1780 C5            1 RES     
   20657 C5        -497.4943  -291.6252   606.7464 C5            1 RES     
   20658 C0        -498.0614  -292.8394   605.9144 C0            1 RES     
   20659 C5        -498.3891  -292.2341   604.4808 C5            1 RES     
   20660 C5        -499.9072  -291.9563   604.2192 C5            1 RES     
   20661 C5        -500.6918  -293.2025   603.6914 C5            1 RES     
   20662 C5        -500.4285  -293.5805   602.2147 C5            1 RES     
   20663 C5        -501.0677  -294.9108   601.7768 C5            1 RES     
   20664 C5        -502.6025  -294.8961   601.6430 C5            1 RES     
   20665 C5        -503.1569  -293.9280   600.5755 C5            1 RES     
   20666 C5        -502.6489  -294.2224   599.1602 C5            1 RES     
   20667 C5        -500.1732  -290.6672   603.3727 C5            1 RES     
   20668 C5        -499.3042  -290.4434   602.1081 C5            1 RES     
   20669 C5        -499.7908  -289.2641   601.2357 C5            1 RES     
   20670 C5        -499.8020  -287.9048   601.9606 C5            1 RES     
   20671 C5        -500.2804  -286.7407   601.0694 C5            1 RES     
   20672 C5        -499.3137  -286.4163   599.9140 C5            1 RES     
   20673 C5        -499.7923  -285.2555   599.0235 C5            1 RES     
   20674 C5        -499.8848  -283.9156   599.7552 C5            1 RES     
   20675 H6        -490.1236  -291.4861   612.4203 H6            1 RES     
   20676 H6        -488.9438  -292.8052   612.7089 H6            1 RES     
   20677 H6        -490.5952  -292.9199   613.4248 H6            1 RES     
   20678 H6        -489.8974  -292.9734   610.4080 H6            1 RES     
   20679 H6        -490.2956  -294.4027   611.4270 H6            1 RES     
   20680 H6        -492.2381  -293.7572   610.0971 H6            1 RES     
   20681 H6        -492.5696  -293.5487   611.8536 H6            1 RES     
   20682 H6        -491.8367  -291.2555   609.8916 H6            1 RES     
   20683 H6        -492.2311  -291.0902   611.6494 H6            1 RES     
   20684 H6        -494.1195  -292.1504   609.4457 H6            1 RES     
   20685 H6        -494.4644  -292.1184   611.2286 H6            1 RES     
   20686 H6        -494.2655  -289.7375   611.3483 H6            1 RES     
   20687 H6        -493.9128  -289.5640   609.5949 H6            1 RES     
   20688 H6        -496.4726  -290.8205   610.7997 H6            1 RES     
   20689 H6        -496.3126  -289.1008   610.3798 H6            1 RES     
   20690 H6        -495.4858  -290.4020   608.0025 H6            1 RES     
   20691 H6        -496.9207  -289.3888   608.2542 H6            1 RES     
   20692 H6        -496.7444  -292.3514   608.6865 H6            1 RES     
   20693 H6        -498.4304  -291.1609   610.1131 H6            1 RES     
   20694 H6        -499.3866  -290.7684   608.6808 H6            1 RES     
   20695 H6        -499.7303  -293.2810   608.3379 H6            1 RES     
   20696 H6        -498.4499  -293.5884   609.5687 H6            1 RES     
   20697 H6        -501.1633  -292.3142   610.2409 H6            1 RES     
   20698 H6        -499.7539  -292.5067   611.3516 H6            1 RES     
   20699 H6        -501.2473  -294.8378   610.0052 H6            1 RES     
   20700 H6        -499.7168  -294.9684   610.9447 H6            1 RES     
   20701 H6        -500.7657  -294.0589   612.9783 H6            1 RES     
   20702 H6        -501.5387  -295.5724   612.3958 H6            1 RES     
   20703 H6        -503.4136  -294.2701   611.3998 H6            1 RES     
   20704 H6        -502.6702  -292.7291   612.0057 H6            1 RES     
   20705 H6        -503.2360  -293.9758   613.1713 H6            1 RES     
   20706 H6        -496.4981  -291.4382   606.2871 H6            1 RES     
   20707 H6        -498.1288  -290.7369   606.5192 H6            1 RES     
   20708 H6        -497.8468  -291.2698   604.3871 H6            1 RES     
   20709 H6        -497.9478  -292.7878   603.6406 H6            1 RES     
   20710 H6        -500.3601  -291.7239   605.2105 H6            1 RES     
   20711 H6        -500.4487  -294.0636   604.3509 H6            1 RES     
   20712 H6        -501.7806  -293.0038   603.7892 H6            1 RES     
   20713 H6        -500.7881  -292.7896   601.5339 H6            1 RES     
   20714 H6        -499.3436  -293.6796   602.0641 H6            1 RES     
   20715 H6        -500.6375  -295.2013   600.7954 H6            1 RES     
   20716 H6        -500.7772  -295.7025   602.4964 H6            1 RES     
   20717 H6        -503.0572  -294.6506   602.6250 H6            1 RES     
   20718 H6        -502.9280  -295.9245   601.3715 H6            1 RES     
   20719 H6        -502.9209  -292.8766   600.8382 H6            1 RES     
   20720 H6        -504.2637  -294.0291   600.5675 H6            1 RES     
   20721 H6        -502.8930  -295.2660   598.8680 H6            1 RES     
   20722 H6        -503.1359  -293.5313   598.4401 H6            1 RES     
   20723 H6        -501.5534  -294.0655   599.0848 H6            1 RES     
   20724 H6        -499.9718  -289.7974   604.0334 H6            1 RES     
   20725 H6        -501.2545  -290.6411   603.1146 H6            1 RES     
   20726 H6        -499.2975  -291.3225   601.4480 H6            1 RES     
   20727 H6        -498.2507  -290.2643   602.4025 H6            1 RES     
   20728 H6        -499.1099  -289.2130   600.3612 H6            1 RES     
   20729 H6        -500.8154  -289.4862   600.8638 H6            1 RES     
   20730 H6        -498.7904  -287.6744   602.3592 H6            1 RES     
   20731 H6        -500.5102  -287.9661   602.8131 H6            1 RES     
   20732 H6        -501.2911  -286.9720   600.6666 H6            1 RES     
   20733 H6        -500.3633  -285.8485   601.7239 H6            1 RES     
   20734 H6        -499.2158  -287.3022   599.2546 H6            1 RES     
   20735 H6        -498.3096  -286.1732   600.3252 H6            1 RES     
   20736 H6        -499.0620  -285.1380   598.1933 H6            1 RES     
   20737 H6        -500.7810  -285.5032   598.5800 H6            1 RES     
   20738 H6        -500.6513  -283.9458   600.5556 H6            1 RES     
   20739 H6        -500.1804  -283.1240   599.0344 H6            1 RES     
   20740 H6        -498.9006  -283.6462   600.1931 H6            1 RES     
   20741 C0        -491.8484  -294.6827   617.1475 C0            1 RES     
   20742 C0        -491.7881  -295.8472   618.1366 C0            1 RES     
   20743 C0        -492.7508  -296.7652   617.8803 C0            1 RES     
   20744 S1        -492.6896  -298.0930   618.8976 S1            1 RES     
   20745 C0        -491.3409  -297.4818   619.7399 C0            1 RES     
   20746 C0        -490.9402  -296.2660   619.1599 C0            1 RES     
   20747 C0        -493.4417  -296.4076   616.6897 C0            1 RES     
   20748 C0        -492.9162  -295.2953   616.2279 C0            1 RES     
   20749 C0        -493.3750  -295.0070   614.8818 C0            1 RES     
   20750 C0        -494.2703  -295.9758   614.4542 C0            1 RES     
   20751 S1        -494.6194  -297.2678   615.6647 S1            1 RES     
   20752 H2        -490.0414  -295.7650   619.4501 H2            1 RES     
   20753 H2        -492.9757  -294.2457   614.2341 H2            1 RES     
   20754 N3        -489.2234  -297.8859   622.8290 N3            1 RES     
   20755 C0        -489.8619  -297.3422   621.7538 C0            1 RES     
   20756 C0        -490.6541  -298.1265   620.8912 C0            1 RES     
   20757 C0        -490.7656  -299.4928   621.1980 C0            1 RES     
   20758 N3        -491.4852  -300.3888   620.4710 N3            1 RES     
   20759 S1        -491.2164  -301.8052   621.2810 S1            1 RES     
   20760 N3        -490.2275  -301.3673   622.5293 N3            1 RES     
   20761 C0        -490.0806  -300.0339   622.3187 C0            1 RES     
   20762 C0        -489.3106  -299.2105   623.1296 C0            1 RES     
   20763 H4        -489.7764  -296.2825   621.5903 H4            1 RES     
   20764 C5        -483.8088  -297.2538   622.2642 C5            1 RES     
   20765 C5        -484.6697  -297.4236   621.0115 C5            1 RES     
   20766 C5        -486.0538  -296.7590   621.1167 C5            1 RES     
   20767 C5        -486.0061  -295.2302   621.3086 C5            1 RES     
   20768 C5        -487.4301  -294.6492   621.3491 C5            1 RES     
   20769 C5        -487.4561  -293.1678   621.7515 C5            1 RES     
   20770 C5        -488.8952  -292.6121   621.8715 C5            1 RES     
   20771 C5        -489.5737  -292.2306   620.5191 C5            1 RES     
   20772 C5        -490.8723  -293.0088   620.1435 C5            1 RES     
   20773 C5        -491.9978  -292.8293   621.2038 C5            1 RES     
   20774 C5        -493.0081  -293.9916   621.1931 C5            1 RES     
   20775 C5        -493.7770  -294.0846   622.5285 C5            1 RES     
   20776 C5        -494.5658  -295.4034   622.6207 C5            1 RES     
   20777 C5        -495.1057  -295.6931   624.0327 C5            1 RES     
   20778 C5        -496.1572  -294.6959   624.5065 C5            1 RES     
   20779 C5        -491.2761  -292.5812   618.6949 C5            1 RES     
   20780 C0        -492.3248  -293.2879   617.7521 C0            1 RES     
   20781 C5        -492.6305  -292.2231   616.6112 C5            1 RES     
   20782 C5        -493.9912  -291.4657   616.7707 C5            1 RES     
   20783 C5        -495.2106  -292.2296   616.1571 C5            1 RES     
   20784 C5        -495.2976  -292.2169   614.6127 C5            1 RES     
   20785 C5        -496.3968  -293.1249   614.0318 C5            1 RES     
   20786 C5        -497.8423  -292.6408   614.2544 C5            1 RES     
   20787 C5        -498.1878  -291.2877   613.5957 C5            1 RES     
   20788 C5        -498.0101  -291.2855   612.0738 C5            1 RES     
   20789 C5        -493.9301  -289.9650   616.3309 C5            1 RES     
   20790 C5        -493.2225  -289.6348   614.9913 C5            1 RES     
   20791 C5        -493.4073  -288.1649   614.5511 C5            1 RES     
   20792 C5        -492.8650  -287.1315   615.5568 C5            1 RES     
   20793 C5        -493.0499  -285.6723   615.0935 C5            1 RES     
   20794 C5        -492.2024  -285.3095   613.8586 C5            1 RES     
   20795 C5        -492.3885  -283.8534   613.3952 C5            1 RES     
   20796 C5        -491.9275  -282.8170   614.4211 C5            1 RES     
   20797 H6        -483.5587  -296.1869   622.4340 H6            1 RES     
   20798 H6        -482.8555  -297.8088   622.1331 H6            1 RES     
   20799 H6        -484.3337  -297.6587   623.1554 H6            1 RES     
   20800 H6        -484.1235  -297.0210   620.1322 H6            1 RES     
   20801 H6        -484.8265  -298.5135   620.8519 H6            1 RES     
   20802 H6        -486.6107  -296.9882   620.1823 H6            1 RES     
   20803 H6        -486.6044  -297.2184   621.9672 H6            1 RES     
   20804 H6        -485.4348  -294.7545   620.4818 H6            1 RES     
   20805 H6        -485.5014  -295.0069   622.2720 H6            1 RES     
   20806 H6        -487.9237  -294.8000   620.3653 H6            1 RES     
   20807 H6        -487.9849  -295.1955   622.1368 H6            1 RES     
   20808 H6        -486.9923  -293.1104   622.7613 H6            1 RES     
   20809 H6        -486.8516  -292.5380   621.0638 H6            1 RES     
   20810 H6        -489.4876  -293.3191   622.4866 H6            1 RES     
   20811 H6        -488.8265  -291.6694   622.4550 H6            1 RES     
   20812 H6        -488.8203  -292.3956   619.7162 H6            1 RES     
   20813 H6        -489.7873  -291.1397   620.5142 H6            1 RES     
   20814 H6        -490.5456  -294.0234   620.1915 H6            1 RES     
   20815 H6        -491.5232  -292.8788   622.1988 H6            1 RES     
   20816 H6        -492.4857  -291.8320   621.1510 H6            1 RES     
   20817 H6        -493.6883  -293.9315   620.3173 H6            1 RES     
   20818 H6        -492.4234  -294.9325   621.1213 H6            1 RES     
   20819 H6        -494.4373  -293.2017   622.6659 H6            1 RES     
   20820 H6        -493.0308  -294.0990   623.3540 H6            1 RES     
   20821 H6        -495.3863  -295.4156   621.8724 H6            1 RES     
   20822 H6        -493.8702  -296.2402   622.3858 H6            1 RES     
   20823 H6        -494.2617  -295.7092   624.7581 H6            1 RES     
   20824 H6        -495.5668  -296.7046   624.0278 H6            1 RES     
   20825 H6        -497.0232  -294.6957   623.8122 H6            1 RES     
   20826 H6        -495.7333  -293.6736   624.5778 H6            1 RES     
   20827 H6        -496.5114  -294.9950   625.5165 H6            1 RES     
   20828 H6        -490.3491  -292.5559   618.0797 H6            1 RES     
   20829 H6        -491.6050  -291.5244   618.8303 H6            1 RES     
   20830 H6        -491.8177  -291.4668   616.6257 H6            1 RES     
   20831 H6        -492.5205  -292.6073   615.5877 H6            1 RES     
   20832 H6        -494.1975  -291.4160   617.8646 H6            1 RES     
   20833 H6        -495.1772  -293.2779   616.5250 H6            1 RES     
   20834 H6        -496.1466  -291.7705   616.5412 H6            1 RES     
   20835 H6        -495.4659  -291.1938   614.2345 H6            1 RES     
   20836 H6        -494.3395  -292.5685   614.2027 H6            1 RES     
   20837 H6        -496.2294  -293.2242   612.9388 H6            1 RES     
   20838 H6        -496.2876  -294.1408   614.4622 H6            1 RES     
   20839 H6        -498.0473  -292.5758   615.3430 H6            1 RES     
   20840 H6        -498.5254  -293.4097   613.8307 H6            1 RES     
   20841 H6        -497.5819  -290.4700   614.0366 H6            1 RES     
   20842 H6        -499.2549  -291.0665   613.8138 H6            1 RES     
   20843 H6        -498.6252  -292.0851   611.6086 H6            1 RES     
   20844 H6        -498.3360  -290.3062   611.6637 H6            1 RES     
   20845 H6        -496.9467  -291.4280   611.7923 H6            1 RES     
   20846 H6        -493.3609  -289.4201   617.1136 H6            1 RES     
   20847 H6        -494.9663  -289.5616   616.3365 H6            1 RES     
   20848 H6        -493.6005  -290.2469   614.1601 H6            1 RES     
   20849 H6        -492.1391  -289.8535   615.0743 H6            1 RES     
   20850 H6        -492.8778  -288.0537   613.5825 H6            1 RES     
   20851 H6        -494.4889  -287.9709   614.3783 H6            1 RES     
   20852 H6        -491.7890  -287.3221   615.7598 H6            1 RES     
   20853 H6        -493.4264  -287.2379   616.5084 H6            1 RES     
   20854 H6        -494.1259  -285.4816   614.8861 H6            1 RES     
   20855 H6        -492.7393  -285.0250   615.9396 H6            1 RES     
   20856 H6        -492.4976  -285.9538   613.0059 H6            1 RES     
   20857 H6        -491.1274  -285.4900   614.0782 H6            1 RES     
   20858 H6        -491.7845  -283.7084   612.4728 H6            1 RES     
   20859 H6        -493.4551  -283.6720   613.1406 H6            1 RES     
   20860 H6        -492.5402  -282.8632   615.3438 H6            1 RES     
   20861 H6        -492.0415  -281.7994   613.9907 H6            1 RES     
   20862 H6        -490.8585  -282.9756   614.6765 H6            1 RES     
   20863 C0        -485.5659  -300.0068   626.5472 C0            1 RES     
   20864 C0        -485.7574  -301.3775   627.1973 C0            1 RES     
   20865 C0        -486.9961  -301.8708   626.9573 C0            1 RES     
   20866 S1        -487.2371  -303.3992   627.5958 S1            1 RES     
   20867 C0        -485.6580  -303.4663   628.2314 C0            1 RES     
   20868 C0        -484.9620  -302.2982   627.8765 C0            1 RES     
   20869 C0        -487.6887  -301.0013   626.0704 C0            1 RES     
   20870 C0        -486.8942  -299.9973   625.7749 C0            1 RES     
   20871 C0        -487.4152  -299.2109   624.6723 C0            1 RES     
   20872 C0        -488.6319  -299.7194   624.2433 C0            1 RES     
   20873 S1        -489.2166  -301.1563   625.1651 S1            1 RES     
   20874 H2        -483.9166  -302.1779   628.0654 H2            1 RES     
   20875 H2        -486.8808  -298.4378   624.1475 H2            1 RES     
   20876 N3        -483.3837  -305.3350   630.5819 N3            1 RES     
   20877 C0        -483.9496  -304.3440   629.8357 C0            1 RES     
   20878 C0        -485.0698  -304.5856   629.0151 C0            1 RES     
   20879 C0        -485.5843  -305.8927   629.0113 C0            1 RES     
   20880 N3        -486.6548  -306.2965   628.2764 N3            1 RES     
   20881 S1        -486.7607  -307.9037   628.6513 S1            1 RES     
   20882 N3        -485.5178  -308.1469   629.7115 N3            1 RES     
   20883 C0        -484.9678  -306.9079   629.7907 C0            1 RES     
   20884 C0        -483.8625  -306.6091   630.5766 C0            1 RES     
   20885 H4        -483.5410  -303.3516   629.9093 H4            1 RES     
   20886 C5        -478.2022  -306.1146   628.9757 C5            1 RES     
   20887 C5        -479.2372  -305.6612   627.9450 C5            1 RES     
   20888 C5        -480.2930  -304.6953   628.5115 C5            1 RES     
   20889 C5        -479.7142  -303.3677   629.0392 C5            1 RES     
   20890 C5        -480.8440  -302.4481   629.5341 C5            1 RES     
   20891 C5        -480.3202  -301.2046   630.2665 C5            1 RES     
   20892 C5        -481.4614  -300.3272   630.8340 C5            1 RES     
   20893 C5        -482.1573  -299.3920   629.7967 C5            1 RES     
   20894 C5        -483.6797  -299.6282   629.5522 C5            1 RES     
   20895 C5        -484.5213  -299.4579   630.8506 C5            1 RES     
   20896 C5        -485.8511  -300.2329   630.7966 C5            1 RES     
   20897 C5        -486.4119  -300.4925   632.2113 C5            1 RES     
   20898 C5        -487.5725  -301.5029   632.1681 C5            1 RES     
   20899 C5        -487.9743  -302.0291   633.5577 C5            1 RES     
   20900 C5        -488.5578  -300.9607   634.4757 C5            1 RES     
   20901 C5        -484.1175  -298.6998   628.3728 C5            1 RES     
   20902 C0        -485.4625  -298.7750   627.5522 C0            1 RES     
   20903 C5        -485.5543  -297.3820   626.7907 C5            1 RES     
   20904 C5        -486.5498  -296.3538   627.4249 C5            1 RES     
   20905 C5        -488.0269  -296.5295   626.9408 C5            1 RES     
   20906 C5        -488.3203  -296.0416   625.5025 C5            1 RES     
   20907 C5        -489.7285  -296.3923   624.9886 C5            1 RES     
   20908 C5        -490.8851  -295.6085   625.6378 C5            1 RES     
   20909 C5        -490.8507  -294.0820   625.4086 C5            1 RES     
   20910 C5        -490.8976  -293.6845   623.9295 C5            1 RES     
   20911 C5        -486.0564  -294.8707   627.3456 C5            1 RES     
   20912 C5        -485.4745  -294.3759   625.9962 C5            1 RES     
   20913 C5        -485.2208  -292.8517   625.9648 C5            1 RES     
   20914 C5        -484.2310  -292.3540   627.0352 C5            1 RES     
   20915 C5        -483.9840  -290.8329   626.9795 C5            1 RES     
   20916 C5        -483.2462  -290.3782   625.7052 C5            1 RES     
   20917 C5        -483.0015  -288.8595   625.6489 C5            1 RES     
   20918 C5        -482.0836  -288.3421   626.7575 C5            1 RES     
   20919 H6        -477.5909  -305.2596   629.3290 H6            1 RES     
   20920 H6        -477.5155  -306.8515   628.5072 H6            1 RES     
   20921 H6        -478.7012  -306.5979   629.8423 H6            1 RES     
   20922 H6        -478.7173  -305.1895   627.0842 H6            1 RES     
   20923 H6        -479.7676  -306.5665   627.5747 H6            1 RES     
   20924 H6        -481.0196  -304.4748   627.6995 H6            1 RES     
   20925 H6        -480.8399  -305.2093   629.3326 H6            1 RES     
   20926 H6        -479.1393  -302.8516   628.2396 H6            1 RES     
   20927 H6        -479.0342  -303.5874   629.8890 H6            1 RES     
   20928 H6        -481.4925  -302.1592   628.6795 H6            1 RES     
   20929 H6        -481.4325  -303.0219   630.2766 H6            1 RES     
   20930 H6        -479.7270  -301.5781   631.1306 H6            1 RES     
   20931 H6        -479.6437  -300.5977   629.6270 H6            1 RES     
   20932 H6        -482.1625  -300.9868   631.3842 H6            1 RES     
   20933 H6        -481.0026  -299.6557   631.5906 H6            1 RES     
   20934 H6        -481.6219  -299.5196   628.8290 H6            1 RES     
   20935 H6        -481.9953  -298.3335   630.0949 H6            1 RES     
   20936 H6        -483.7049  -300.6614   629.2870 H6            1 RES     
   20937 H6        -483.9555  -299.9277   631.6733 H6            1 RES     
   20938 H6        -484.6529  -298.3938   631.1435 H6            1 RES     
   20939 H6        -486.5884  -299.7304   630.1355 H6            1 RES     
   20940 H6        -485.6280  -301.2363   630.3772 H6            1 RES     
   20941 H6        -486.7156  -299.5401   632.6962 H6            1 RES     
   20942 H6        -485.6049  -300.9570   632.8207 H6            1 RES     
   20943 H6        -488.4469  -301.0644   631.6424 H6            1 RES     
   20944 H6        -487.2343  -302.3947   631.5939 H6            1 RES     
   20945 H6        -487.0907  -302.4934   634.0500 H6            1 RES     
   20946 H6        -488.7409  -302.8225   633.4207 H6            1 RES     
   20947 H6        -489.4629  -300.5138   634.0140 H6            1 RES     
   20948 H6        -487.8131  -300.1665   634.6863 H6            1 RES     
   20949 H6        -488.8459  -301.4300   635.4409 H6            1 RES     
   20950 H6        -483.3307  -298.7574   627.5880 H6            1 RES     
   20951 H6        -484.0546  -297.6811   628.8219 H6            1 RES     
   20952 H6        -484.5430  -296.9236   626.7979 H6            1 RES     
   20953 H6        -485.7226  -297.4646   625.7080 H6            1 RES     
   20954 H6        -486.5724  -296.5705   628.5177 H6            1 RES     
   20955 H6        -488.2921  -297.6047   627.0364 H6            1 RES     
   20956 H6        -488.6938  -295.9591   627.6222 H6            1 RES     
   20957 H6        -488.1908  -294.9485   625.4216 H6            1 RES     
   20958 H6        -487.6008  -296.5123   624.8167 H6            1 RES     
   20959 H6        -489.7586  -296.2103   623.8938 H6            1 RES     
   20960 H6        -489.9036  -297.4774   625.1338 H6            1 RES     
   20961 H6        -490.9022  -295.8101   626.7289 H6            1 RES     
   20962 H6        -491.8369  -295.9952   625.2114 H6            1 RES     
   20963 H6        -489.9522  -293.6340   625.8802 H6            1 RES     
   20964 H6        -491.7421  -293.6436   625.9070 H6            1 RES     
   20965 H6        -491.8019  -294.1063   623.4414 H6            1 RES     
   20966 H6        -490.9340  -292.5779   623.8438 H6            1 RES     
   20967 H6        -489.9923  -294.0315   623.3905 H6            1 RES     
   20968 H6        -485.2349  -294.7618   628.0851 H6            1 RES     
   20969 H6        -486.8883  -294.2123   627.6785 H6            1 RES     
   20970 H6        -486.1469  -294.5858   625.1522 H6            1 RES     
   20971 H6        -484.5248  -294.9047   625.7796 H6            1 RES     
   20972 H6        -484.8258  -292.6156   624.9553 H6            1 RES     
   20973 H6        -486.1896  -292.3198   626.0903 H6            1 RES     
   20974 H6        -483.2620  -292.8902   626.9403 H6            1 RES     
   20975 H6        -484.6565  -292.5719   628.0370 H6            1 RES     
   20976 H6        -484.9536  -290.2954   627.0702 H6            1 RES     
   20977 H6        -483.3609  -290.5762   627.8610 H6            1 RES     
   20978 H6        -483.8550  -290.6345   624.8147 H6            1 RES     
   20979 H6        -482.2725  -290.9097   625.6286 H6            1 RES     
   20980 H6        -482.5193  -288.6269   624.6742 H6            1 RES     
   20981 H6        -483.9720  -288.3192   625.6907 H6            1 RES     
   20982 H6        -482.5412  -288.4821   627.7574 H6            1 RES     
   20983 H6        -481.9126  -287.2541   626.6137 H6            1 RES     
   20984 H6        -481.1033  -288.8624   626.7212 H6            1 RES     
   20985 C0        -480.1544  -309.3900   632.7797 C0            1 RES     
   20986 C0        -480.6969  -310.7791   633.1176 C0            1 RES     
   20987 C0        -482.0497  -310.8114   633.0544 C0            1 RES     
   20988 S1        -482.6923  -312.3274   633.3557 S1            1 RES     
   20989 C0        -481.1524  -313.0187   633.5855 C0            1 RES     
   20990 C0        -480.1652  -312.0430   633.3658 C0            1 RES     
   20991 C0        -482.5316  -309.5624   632.5746 C0            1 RES     
   20992 C0        -481.4986  -308.7818   632.3507 C0            1 RES     
   20993 C0        -481.8783  -307.5939   631.6087 C0            1 RES     
   20994 C0        -483.2421  -307.5910   631.3582 C0            1 RES     
   20995 S1        -484.1352  -309.0096   632.0263 S1            1 RES     
   20996 H2        -479.1236  -312.2823   633.3372 H2            1 RES     
   20997 H2        -481.1968  -306.8841   631.1725 H2            1 RES     
   20998 N3        -479.3215  -316.0540   634.8601 N3            1 RES     
   20999 C0        -479.6252  -314.7707   634.5132 C0            1 RES     
   21000 C0        -480.8654  -314.4364   633.9329 C0            1 RES     
   21001 C0        -481.7797  -315.4853   633.7399 C0            1 RES     
   21002 N3        -483.0153  -315.3383   633.1917 N3            1 RES     
   21003 S1        -483.5949  -316.8871   633.1948 S1            1 RES     
   21004 N3        -482.3676  -317.7691   633.8609 N3            1 RES     
   21005 C0        -481.4322  -316.8145   634.1012 C0            1 RES     
   21006 C0        -480.1918  -317.0823   634.6653 C0            1 RES     
   21007 H4        -478.9043  -314.0002   634.7225 H4            1 RES     
   21008 C5        -474.9719  -317.7535   631.9915 C5            1 RES     
   21009 C5        -475.9315  -316.7464   631.3556 C5            1 RES     
   21010 C5        -476.5164  -315.7325   632.3549 C5            1 RES     
   21011 C5        -475.4618  -314.8364   633.0338 C5            1 RES     
   21012 C5        -476.1412  -313.8230   633.9711 C5            1 RES     
   21013 C5        -475.1372  -313.0482   634.8363 C5            1 RES     
   21014 C5        -475.8309  -312.0914   635.8351 C5            1 RES     
   21015 C5        -476.3151  -310.7374   635.2291 C5            1 RES     
   21016 C5        -477.8479  -310.4537   635.2857 C5            1 RES     
   21017 C5        -478.3944  -310.4413   636.7431 C5            1 RES     
   21018 C5        -479.8997  -310.7600   636.8106 C5            1 RES     
   21019 C5        -480.3107  -311.2535   638.2144 C5            1 RES     
   21020 C5        -481.7347  -311.8380   638.1990 C5            1 RES     
   21021 C5        -482.0894  -312.6125   639.4811 C5            1 RES     
   21022 C5        -482.1504  -311.7406   640.7304 C5            1 RES     
   21023 C5        -478.1136  -309.1370   634.4855 C5            1 RES     
   21024 C0        -479.5082  -308.5874   633.9947 C0            1 RES     
   21025 C5        -479.2383  -307.0656   633.6204 C5            1 RES     
   21026 C5        -479.7368  -306.0315   634.6847 C5            1 RES     
   21027 C5        -481.2409  -305.6350   634.5185 C5            1 RES     
   21028 C5        -481.5543  -304.6858   633.3381 C5            1 RES     
   21029 C5        -483.0564  -304.4600   633.0873 C5            1 RES     
   21030 C5        -483.7841  -303.6084   634.1450 C5            1 RES     
   21031 C5        -483.2775  -302.1558   634.2769 C5            1 RES     
   21032 C5        -483.3967  -301.3465   632.9813 C5            1 RES     
   21033 C5        -478.7954  -304.7916   634.8450 C5            1 RES     
   21034 C5        -478.2776  -304.1081   633.5530 C5            1 RES     
   21035 C5        -477.5394  -302.7772   633.8222 C5            1 RES     
   21036 C5        -476.3008  -302.9139   634.7279 C5            1 RES     
   21037 C5        -475.5734  -301.5768   634.9748 C5            1 RES     
   21038 C5        -474.9129  -300.9958   633.7095 C5            1 RES     
   21039 C5        -474.1884  -299.6602   633.9557 C5            1 RES     
   21040 C5        -473.0051  -299.7698   634.9184 C5            1 RES     
   21041 H6        -474.0685  -317.2473   632.3877 H6            1 RES     
   21042 H6        -474.6416  -318.4830   631.2216 H6            1 RES     
   21043 H6        -475.4764  -318.3084   632.8108 H6            1 RES     
   21044 H6        -475.4107  -316.2096   630.5345 H6            1 RES     
   21045 H6        -476.7787  -317.3164   630.9134 H6            1 RES     
   21046 H6        -477.2348  -315.0891   631.8020 H6            1 RES     
   21047 H6        -477.0820  -316.2888   633.1348 H6            1 RES     
   21048 H6        -474.8664  -314.2924   632.2684 H6            1 RES     
   21049 H6        -474.7813  -315.4771   633.6330 H6            1 RES     
   21050 H6        -476.7701  -313.1265   633.3763 H6            1 RES     
   21051 H6        -476.7765  -314.3993   634.6720 H6            1 RES     
   21052 H6        -474.5866  -313.8092   635.4328 H6            1 RES     
   21053 H6        -474.3943  -312.4966   634.2208 H6            1 RES     
   21054 H6        -476.6267  -312.6581   636.3594 H6            1 RES     
   21055 H6        -475.0740  -311.8282   636.6043 H6            1 RES     
   21056 H6        -475.9937  -310.7215   634.1634 H6            1 RES     
   21057 H6        -475.7708  -309.9029   635.7219 H6            1 RES     
   21058 H6        -478.2516  -311.3133   634.7992 H6            1 RES     
   21059 H6        -477.9073  -311.2706   637.2841 H6            1 RES     
   21060 H6        -478.1229  -309.5175   637.2983 H6            1 RES     
   21061 H6        -480.5135  -309.8999   636.4687 H6            1 RES     
   21062 H6        -480.0834  -311.6170   636.1293 H6            1 RES     
   21063 H6        -480.2099  -310.4395   638.9639 H6            1 RES     
   21064 H6        -479.6266  -312.0833   638.5006 H6            1 RES     
   21065 H6        -482.4786  -311.0375   638.0011 H6            1 RES     
   21066 H6        -481.7958  -312.5800   637.3715 H6            1 RES     
   21067 H6        -481.3502  -313.4294   639.6392 H6            1 RES     
   21068 H6        -483.0870  -313.0820   639.3389 H6            1 RES     
   21069 H6        -482.9111  -310.9426   640.6019 H6            1 RES     
   21070 H6        -481.1625  -311.2857   640.9473 H6            1 RES     
   21071 H6        -482.4396  -312.3710   641.5987 H6            1 RES     
   21072 H6        -477.5088  -309.1812   633.5525 H6            1 RES     
   21073 H6        -477.6538  -308.3551   635.1340 H6            1 RES     
   21074 H6        -478.1418  -306.9331   633.5065 H6            1 RES     
   21075 H6        -479.5746  -306.7769   632.6150 H6            1 RES     
   21076 H6        -479.6766  -306.5430   635.6729 H6            1 RES     
   21077 H6        -481.8317  -306.5712   634.4176 H6            1 RES     
   21078 H6        -481.5781  -305.1257   635.4465 H6            1 RES     
   21079 H6        -481.0820  -303.6994   633.4877 H6            1 RES     
   21080 H6        -481.1355  -305.1176   632.4174 H6            1 RES     
   21081 H6        -483.1775  -303.9647   632.1010 H6            1 RES     
   21082 H6        -483.5594  -305.4449   633.0106 H6            1 RES     
   21083 H6        -483.7140  -304.1071   635.1338 H6            1 RES     
   21084 H6        -484.8601  -303.5693   633.8657 H6            1 RES     
   21085 H6        -482.2246  -302.1370   634.6252 H6            1 RES     
   21086 H6        -483.8936  -301.6503   635.0516 H6            1 RES     
   21087 H6        -484.4487  -301.3349   632.6247 H6            1 RES     
   21088 H6        -483.0754  -300.2998   633.1669 H6            1 RES     
   21089 H6        -482.7429  -301.7604   632.1864 H6            1 RES     
   21090 H6        -477.8892  -305.1395   635.3847 H6            1 RES     
   21091 H6        -479.3063  -304.0534   635.5010 H6            1 RES     
   21092 H6        -479.0928  -303.8639   632.8571 H6            1 RES     
   21093 H6        -477.5975  -304.7951   633.0107 H6            1 RES     
   21094 H6        -477.2341  -302.3771   632.8334 H6            1 RES     
   21095 H6        -478.2490  -302.0553   634.2833 H6            1 RES     
   21096 H6        -475.5881  -303.6487   634.2947 H6            1 RES     
   21097 H6        -476.6296  -303.2865   635.7205 H6            1 RES     
   21098 H6        -476.2867  -300.8395   635.4046 H6            1 RES     
   21099 H6        -474.7833  -301.7755   635.7282 H6            1 RES     
   21100 H6        -475.6907  -300.7983   632.9444 H6            1 RES     
   21101 H6        -474.1918  -301.7330   633.2935 H6            1 RES     
   21102 H6        -473.7981  -299.2980   632.9796 H6            1 RES     
   21103 H6        -474.9086  -298.9057   634.3401 H6            1 RES     
   21104 H6        -473.3381  -300.0617   635.9347 H6            1 RES     
   21105 H6        -472.5046  -298.7815   634.9981 H6            1 RES     
   21106 H6        -472.2683  -300.5103   634.5418 H6            1 RES     
   21107 C0        -477.3468  -321.3112   635.2645 C0            1 RES     
   21108 C0        -478.2665  -322.5271   635.3819 C0            1 RES     
   21109 C0        -479.5481  -322.1578   635.6193 C0            1 RES     
   21110 S1        -480.6084  -323.4507   635.6950 S1            1 RES     
   21111 C0        -479.3692  -324.5829   635.4040 C0            1 RES     
   21112 C0        -478.1552  -323.9044   635.2017 C0            1 RES     
   21113 C0        -479.6503  -320.7403   635.5657 C0            1 RES     
   21114 C0        -478.4590  -320.2518   635.3035 C0            1 RES     
   21115 C0        -478.5230  -318.8423   634.9646 C0            1 RES     
   21116 C0        -479.8294  -318.3828   635.0356 C0            1 RES     
   21117 S1        -481.0396  -319.6237   635.5375 S1            1 RES     
   21118 H2        -477.2671  -324.4076   634.8841 H2            1 RES     
   21119 H2        -477.7128  -318.2575   634.5643 H2            1 RES     
   21120 N3        -478.4900  -328.2447   635.4883 N3            1 RES     
   21121 C0        -478.3959  -326.8850   635.5283 C0            1 RES     
   21122 C0        -479.5232  -326.0609   635.3368 C0            1 RES     
   21123 C0        -480.7513  -326.7059   635.1153 C0            1 RES     
   21124 N3        -481.9321  -326.0637   634.9094 N3            1 RES     
   21125 S1        -482.9864  -327.3172   634.6812 S1            1 RES     
   21126 N3        -482.0408  -328.6633   634.8288 N3            1 RES     
   21127 C0        -480.8177  -328.1242   635.0683 C0            1 RES     
   21128 C0        -479.6704  -328.8828   635.2600 C0            1 RES     
   21129 H4        -477.4384  -326.4448   635.7439 H4            1 RES     
   21130 C5        -475.3988  -330.1816   631.3982 C5            1 RES     
   21131 C5        -476.0488  -328.8053   631.2481 C5            1 RES     
   21132 C5        -476.1178  -328.0066   632.5618 C5            1 RES     
   21133 C5        -474.7415  -327.6828   633.1757 C5            1 RES     
   21134 C5        -474.9074  -326.8399   634.4520 C5            1 RES     
   21135 C5        -473.5923  -326.6672   635.2252 C5            1 RES     
   21136 C5        -473.7819  -325.8900   636.5497 C5            1 RES     
   21137 C5        -473.8692  -324.3391   636.4018 C5            1 RES     
   21138 C5        -475.1969  -323.6653   636.8669 C5            1 RES     
   21139 C5        -475.4983  -323.9268   638.3715 C5            1 RES     
   21140 C5        -476.9988  -323.8145   638.7000 C5            1 RES     
   21141 C5        -477.3491  -324.5608   640.0051 C5            1 RES     
   21142 C5        -478.8737  -324.6900   640.1749 C5            1 RES     
   21143 C5        -479.2818  -325.6734   641.2866 C5            1 RES     
   21144 C5        -478.8742  -325.2249   642.6856 C5            1 RES     
   21145 C5        -475.1199  -322.1530   636.4774 C5            1 RES     
   21146 C0        -476.3073  -321.1149   636.4557 C0            1 RES     
   21147 C5        -475.6029  -319.6904   636.3962 C5            1 RES     
   21148 C5        -475.5755  -318.9167   637.7567 C5            1 RES     
   21149 C5        -476.8703  -318.0827   638.0309 C5            1 RES     
   21150 C5        -477.0131  -316.7816   637.2067 C5            1 RES     
   21151 C5        -478.3745  -316.0794   637.3605 C5            1 RES     
   21152 C5        -478.6224  -315.4060   638.7238 C5            1 RES     
   21153 C5        -477.6492  -314.2595   639.0738 C5            1 RES     
   21154 C5        -477.6735  -313.1072   638.0641 C5            1 RES     
   21155 C5        -474.2633  -318.0950   637.9858 C5            1 RES     
   21156 C5        -473.7346  -317.2379   636.8067 C5            1 RES     
   21157 C5        -472.5665  -316.3079   637.2059 C5            1 RES     
   21158 C5        -471.3295  -317.0462   637.7517 C5            1 RES     
   21159 C5        -470.1725  -316.1009   638.1337 C5            1 RES     
   21160 C5        -469.5410  -315.3854   636.9237 C5            1 RES     
   21161 C5        -468.3873  -314.4404   637.3054 C5            1 RES     
   21162 C5        -467.1849  -315.1551   637.9238 C5            1 RES     
   21163 H6        -474.3324  -330.0890   631.6877 H6            1 RES     
   21164 H6        -475.4407  -330.7159   630.4251 H6            1 RES     
   21165 H6        -475.9387  -330.7867   632.1571 H6            1 RES     
   21166 H6        -475.4999  -328.2209   630.4794 H6            1 RES     
   21167 H6        -477.0902  -328.9586   630.8876 H6            1 RES     
   21168 H6        -476.6520  -327.0548   632.3510 H6            1 RES     
   21169 H6        -476.7207  -328.5842   633.2970 H6            1 RES     
   21170 H6        -474.1127  -327.1291   632.4447 H6            1 RES     
   21171 H6        -474.2352  -328.6351   633.4396 H6            1 RES     
   21172 H6        -475.3463  -325.8525   634.1938 H6            1 RES     
   21173 H6        -475.5930  -327.3930   635.1235 H6            1 RES     
   21174 H6        -473.2477  -327.6921   635.4877 H6            1 RES     
   21175 H6        -472.8026  -326.1919   634.6045 H6            1 RES     
   21176 H6        -474.6388  -326.3376   637.0925 H6            1 RES     
   21177 H6        -472.8806  -326.0874   637.1682 H6            1 RES     
   21178 H6        -473.7135  -324.1030   635.3251 H6            1 RES     
   21179 H6        -473.0153  -323.8736   636.9403 H6            1 RES     
   21180 H6        -475.9270  -324.1950   636.2969 H6            1 RES     
   21181 H6        -475.2432  -324.9800   638.5797 H6            1 RES     
   21182 H6        -474.8606  -323.3213   639.0512 H6            1 RES     
   21183 H6        -477.3338  -322.7558   638.7157 H6            1 RES     
   21184 H6        -477.5501  -324.3467   637.8967 H6            1 RES     
   21185 H6        -476.8799  -324.0645   640.8815 H6            1 RES     
   21186 H6        -476.9463  -325.5952   639.9279 H6            1 RES     
   21187 H6        -479.3296  -323.6913   640.3422 H6            1 RES     
   21188 H6        -479.2929  -325.1089   639.2325 H6            1 RES     
   21189 H6        -478.8412  -326.6741   641.0788 H6            1 RES     
   21190 H6        -480.3882  -325.7803   641.2671 H6            1 RES     
   21191 H6        -479.3370  -324.2440   642.9218 H6            1 RES     
   21192 H6        -477.7713  -325.1504   642.7745 H6            1 RES     
   21193 H6        -479.2314  -325.9738   643.4248 H6            1 RES     
   21194 H6        -474.7012  -322.0905   635.4482 H6            1 RES     
   21195 H6        -474.3406  -321.7574   637.1698 H6            1 RES     
   21196 H6        -474.5521  -319.8443   636.0724 H6            1 RES     
   21197 H6        -475.9617  -319.0378   635.5883 H6            1 RES     
   21198 H6        -475.5505  -319.6902   638.5584 H6            1 RES     
   21199 H6        -477.7463  -318.7426   637.8499 H6            1 RES     
   21200 H6        -476.8857  -317.7939   639.1036 H6            1 RES     
   21201 H6        -476.2242  -316.0567   637.4722 H6            1 RES     
   21202 H6        -476.8948  -317.0246   636.1406 H6            1 RES     
   21203 H6        -478.4614  -315.3041   636.5706 H6            1 RES     
   21204 H6        -479.1814  -316.8158   637.1713 H6            1 RES     
   21205 H6        -478.5838  -316.1709   639.5269 H6            1 RES     
   21206 H6        -479.6523  -314.9860   638.7112 H6            1 RES     
   21207 H6        -476.6119  -314.6403   639.1704 H6            1 RES     
   21208 H6        -477.9476  -313.8509   640.0633 H6            1 RES     
   21209 H6        -478.7009  -312.6964   637.9666 H6            1 RES     
   21210 H6        -477.0003  -312.2952   638.4117 H6            1 RES     
   21211 H6        -477.3124  -313.4367   637.0683 H6            1 RES     
   21212 H6        -473.4578  -318.8258   638.2110 H6            1 RES     
   21213 H6        -474.4029  -317.4687   638.8939 H6            1 RES     
   21214 H6        -474.5116  -316.5818   636.3892 H6            1 RES     
   21215 H6        -473.4043  -317.8983   635.9801 H6            1 RES     
   21216 H6        -472.2875  -315.7387   636.2953 H6            1 RES     
   21217 H6        -472.9242  -315.5835   637.9706 H6            1 RES     
   21218 H6        -470.9693  -317.7913   637.0098 H6            1 RES     
   21219 H6        -471.6207  -317.5847   638.6776 H6            1 RES     
   21220 H6        -470.5330  -315.3522   638.8731 H6            1 RES     
   21221 H6        -469.3958  -316.7251   638.6219 H6            1 RES     
   21222 H6        -470.3082  -314.7623   636.4214 H6            1 RES     
   21223 H6        -469.1713  -316.1402   636.1956 H6            1 RES     
   21224 H6        -468.0399  -313.9335   636.3787 H6            1 RES     
   21225 H6        -468.7548  -313.6609   638.0074 H6            1 RES     
   21226 H6        -467.4500  -315.6256   638.8919 H6            1 RES     
   21227 H6        -466.3788  -314.4159   638.1172 H6            1 RES     
   21228 H6        -466.7962  -315.9288   637.2286 H6            1 RES     
   21229 C0        -478.3361  -333.7232   634.1982 C0            1 RES     
   21230 C0        -479.5811  -334.6102   634.2324 C0            1 RES     
   21231 C0        -480.6207  -333.9817   634.8319 C0            1 RES     
   21232 S1        -482.0283  -334.8874   634.8404 S1            1 RES     
   21233 C0        -481.2889  -336.1854   634.0216 C0            1 RES     
   21234 C0        -479.9597  -335.8475   633.7153 C0            1 RES     
   21235 C0        -480.2531  -332.6418   635.1353 C0            1 RES     
   21236 C0        -479.0165  -332.4536   634.7330 C0            1 RES     
   21237 C0        -478.6558  -331.0482   634.7561 C0            1 RES     
   21238 C0        -479.7120  -330.2817   635.2248 C0            1 RES     
   21239 S1        -481.1825  -331.2223   635.6823 S1            1 RES     
   21240 H2        -479.3427  -336.4642   633.0972 H2            1 RES     
   21241 H2        -477.7621  -330.6245   634.3315 H2            1 RES     
   21242 N3        -481.6723  -339.8041   633.0481 N3            1 RES     
   21243 C0        -481.1277  -338.5995   633.3822 C0            1 RES     
   21244 C0        -481.9326  -337.4733   633.6476 C0            1 RES     
   21245 C0        -483.3233  -337.6527   633.5640 C0            1 RES     
   21246 N3        -484.2405  -336.6734   633.7853 N3            1 RES     
   21247 S1        -485.6720  -337.4558   633.5141 S1            1 RES     
   21248 N3        -485.2160  -338.9951   633.1263 N3            1 RES     
   21249 C0        -483.8626  -338.9165   633.2033 C0            1 RES     
   21250 C0        -483.0172  -339.9885   632.9490 C0            1 RES     
   21251 H4        -480.0581  -338.5295   633.4733 H4            1 RES     
   21252 C5        -480.0050  -341.2466   628.0305 C5            1 RES     
   21253 C5        -480.1756  -339.7620   628.3564 C5            1 RES     
   21254 C5        -479.7907  -339.3971   629.8012 C5            1 RES     
   21255 C5        -478.3133  -339.6678   630.1474 C5            1 RES     
   21256 C5        -478.0094  -339.2243   631.5889 C5            1 RES     
   21257 C5        -476.6169  -339.6625   632.0644 C5            1 RES     
   21258 C5        -476.3501  -339.2865   633.5414 C5            1 RES     
   21259 C5        -475.9375  -337.8012   633.7834 C5            1 RES     
   21260 C5        -476.8872  -336.9481   634.6797 C5            1 RES     
   21261 C5        -477.0442  -337.5426   636.1097 C5            1 RES     
   21262 C5        -478.3605  -337.1142   636.7847 C5            1 RES     
   21263 C5        -478.7521  -338.0797   637.9239 C5            1 RES     
   21264 C5        -480.1933  -337.8188   638.3976 C5            1 RES     
   21265 C5        -480.7445  -338.9281   639.3115 C5            1 RES     
   21266 C5        -480.0193  -339.0422   640.6477 C5            1 RES     
   21267 C5        -476.3681  -335.4737   634.6471 C5            1 RES     
   21268 C0        -477.1342  -334.1846   635.1366 C0            1 RES     
   21269 C5        -476.0126  -333.0634   635.2543 C5            1 RES     
   21270 C5        -475.5395  -332.7621   636.7157 C5            1 RES     
   21271 C5        -476.4321  -331.7160   637.4616 C5            1 RES     
   21272 C5        -476.2490  -330.2455   637.0180 C5            1 RES     
   21273 C5        -477.2644  -329.2660   637.6342 C5            1 RES     
   21274 C5        -477.0810  -328.9797   639.1368 C5            1 RES     
   21275 C5        -475.7436  -328.3079   639.5164 C5            1 RES     
   21276 C5        -475.5253  -326.9525   638.8359 C5            1 RES     
   21277 C5        -474.0107  -332.4472   636.8288 C5            1 RES     
   21278 C5        -473.3983  -331.4674   635.7946 C5            1 RES     
   21279 C5        -471.9440  -331.0627   636.1262 C5            1 RES     
   21280 C5        -470.9586  -332.2450   636.1914 C5            1 RES     
   21281 C5        -469.5120  -331.8182   636.5128 C5            1 RES     
   21282 C5        -468.8551  -330.9878   635.3932 C5            1 RES     
   21283 C5        -467.4118  -330.5602   635.7150 C5            1 RES     
   21284 C5        -466.4405  -331.7325   635.8622 C5            1 RES     
   21285 H6        -478.9389  -341.5465   628.0858 H6            1 RES     
   21286 H6        -480.3579  -341.4384   626.9948 H6            1 RES     
   21287 H6        -480.6030  -341.8699   628.7287 H6            1 RES     
   21288 H6        -479.5774  -339.1573   627.6422 H6            1 RES     
   21289 H6        -481.2485  -339.5038   628.2142 H6            1 RES     
   21290 H6        -480.0026  -338.3153   629.9444 H6            1 RES     
   21291 H6        -480.4417  -339.9706   630.4975 H6            1 RES     
   21292 H6        -477.6455  -339.1246   629.4436 H6            1 RES     
   21293 H6        -478.1201  -340.7577   630.0606 H6            1 RES     
   21294 H6        -478.1272  -338.1228   631.6741 H6            1 RES     
   21295 H6        -478.7384  -339.7335   632.2493 H6            1 RES     
   21296 H6        -476.5987  -340.7730   631.9956 H6            1 RES     
   21297 H6        -475.8095  -339.2685   631.4104 H6            1 RES     
   21298 H6        -477.2219  -339.6134   634.1433 H6            1 RES     
   21299 H6        -475.4881  -339.9013   633.8773 H6            1 RES     
   21300 H6        -475.8649  -337.3141   632.7850 H6            1 RES     
   21301 H6        -474.9110  -337.7734   634.2091 H6            1 RES     
   21302 H6        -477.8240  -337.0602   634.1813 H6            1 RES     
   21303 H6        -477.1266  -338.6379   636.0033 H6            1 RES     
   21304 H6        -476.1530  -337.3675   636.7505 H6            1 RES     
   21305 H6        -478.3194  -336.0570   637.1223 H6            1 RES     
   21306 H6        -479.1641  -337.2106   636.0248 H6            1 RES     
   21307 H6        -478.0267  -338.0145   638.7630 H6            1 RES     
   21308 H6        -478.7305  -339.1158   637.5185 H6            1 RES     
   21309 H6        -480.2637  -336.8268   638.8919 H6            1 RES     
   21310 H6        -480.8555  -337.8079   637.5029 H6            1 RES     
   21311 H6        -480.6948  -339.9058   638.7820 H6            1 RES     
   21312 H6        -481.8148  -338.7090   639.5174 H6            1 RES     
   21313 H6        -480.0923  -338.0848   641.2045 H6            1 RES     
   21314 H6        -478.9533  -339.3103   640.5008 H6            1 RES     
   21315 H6        -480.4975  -339.8426   641.2525 H6            1 RES     
   21316 H6        -476.1010  -335.2331   633.5940 H6            1 RES     
   21317 H6        -475.4127  -335.5339   635.2190 H6            1 RES     
   21318 H6        -475.1289  -333.4048   634.6754 H6            1 RES     
   21319 H6        -476.2441  -332.1297   634.7234 H6            1 RES     
   21320 H6        -475.6606  -333.7107   637.2878 H6            1 RES     
   21321 H6        -477.4937  -332.0198   637.3336 H6            1 RES     
   21322 H6        -476.2002  -331.7616   638.5472 H6            1 RES     
   21323 H6        -475.2353  -329.8825   637.2607 H6            1 RES     
   21324 H6        -476.3688  -330.1889   635.9262 H6            1 RES     
   21325 H6        -477.1989  -328.3018   637.0876 H6            1 RES     
   21326 H6        -478.2881  -329.6567   637.4650 H6            1 RES     
   21327 H6        -477.1863  -329.9246   639.7091 H6            1 RES     
   21328 H6        -477.9042  -328.3026   639.4550 H6            1 RES     
   21329 H6        -474.8888  -328.9759   639.2852 H6            1 RES     
   21330 H6        -475.7476  -328.1402   640.6150 H6            1 RES     
   21331 H6        -476.3611  -326.2596   639.0711 H6            1 RES     
   21332 H6        -474.5792  -326.5014   639.2028 H6            1 RES     
   21333 H6        -475.4375  -327.0638   637.7357 H6            1 RES     
   21334 H6        -473.4702  -333.4074   636.6897 H6            1 RES     
   21335 H6        -473.8056  -332.1012   637.8654 H6            1 RES     
   21336 H6        -473.9639  -330.5271   635.7279 H6            1 RES     
   21337 H6        -473.4252  -331.9220   634.7841 H6            1 RES     
   21338 H6        -471.6225  -330.3545   635.3350 H6            1 RES     
   21339 H6        -471.9301  -330.5239   637.0992 H6            1 RES     
   21340 H6        -470.9739  -332.8102   635.2344 H6            1 RES     
   21341 H6        -471.2792  -332.9263   637.0070 H6            1 RES     
   21342 H6        -469.4961  -331.2490   637.4683 H6            1 RES     
   21343 H6        -468.9262  -332.7500   636.6539 H6            1 RES     
   21344 H6        -469.4344  -330.0555   635.2364 H6            1 RES     
   21345 H6        -468.8628  -331.5685   634.4449 H6            1 RES     
   21346 H6        -467.0493  -329.9234   634.8786 H6            1 RES     
   21347 H6        -467.3974  -329.9498   636.6439 H6            1 RES     
   21348 H6        -466.7083  -332.3713   636.7278 H6            1 RES     
   21349 H6        -465.4161  -331.3401   636.0362 H6            1 RES     
   21350 H6        -466.4323  -332.3455   634.9364 H6            1 RES     
   21351 C0        -483.5279  -344.4768   630.5135 C0            1 RES     
   21352 C0        -484.9789  -344.9474   630.6192 C0            1 RES     
   21353 C0        -485.6560  -344.2562   631.5673 C0            1 RES     
   21354 S1        -487.2685  -344.6905   631.6808 S1            1 RES     
   21355 C0        -487.1244  -345.8452   630.4366 C0            1 RES     
   21356 C0        -485.8152  -345.8205   629.9264 C0            1 RES     
   21357 C0        -484.8259  -343.2237   632.0844 C0            1 RES     
   21358 C0        -483.6663  -343.2817   631.4693 C0            1 RES     
   21359 C0        -482.8601  -342.1054   631.7381 C0            1 RES     
   21360 C0        -483.5253  -341.2451   632.5984 C0            1 RES     
   21361 S1        -485.1450  -341.8251   633.1427 S1            1 RES     
   21362 H2        -485.5310  -346.3768   629.0587 H2            1 RES     
   21363 H2        -481.9453  -341.8452   631.2341 H2            1 RES     
   21364 N3        -488.8195  -348.7598   628.7570 N3            1 RES     
   21365 C0        -487.8648  -347.9098   629.2318 C0            1 RES     
   21366 C0        -488.2047  -346.7318   629.9271 C0            1 RES     
   21367 C0        -489.5733  -346.4802   630.1194 C0            1 RES     
   21368 N3        -490.0728  -345.3921   630.7640 N3            1 RES     
   21369 S1        -491.7058  -345.6252   630.6473 S1            1 RES     
   21370 N3        -491.8458  -347.0468   629.8182 N3            1 RES     
   21371 C0        -490.5463  -347.3781   629.6045 C0            1 RES     
   21372 C0        -490.1492  -348.5211   628.9231 C0            1 RES     
   21373 H4        -486.8311  -348.1732   629.0933 H4            1 RES     
   21374 C5        -488.4465  -349.0787   623.2985 C5            1 RES     
   21375 C5        -488.0673  -347.7692   623.9919 C5            1 RES     
   21376 C5        -487.3845  -347.9667   625.3570 C5            1 RES     
   21377 C5        -486.0476  -348.7309   625.2885 C5            1 RES     
   21378 C5        -485.4148  -348.8329   626.6871 C5            1 RES     
   21379 C5        -484.1946  -349.7641   626.7208 C5            1 RES     
   21380 C5        -483.6138  -349.9276   628.1456 C5            1 RES     
   21381 C5        -482.7020  -348.7570   628.6285 C5            1 RES     
   21382 C5        -483.1792  -347.9725   629.8895 C5            1 RES     
   21383 C5        -483.3224  -348.8903   631.1386 C5            1 RES     
   21384 C5        -484.3135  -348.3260   632.1737 C5            1 RES     
   21385 C5        -484.8395  -349.4317   633.1139 C5            1 RES     
   21386 C5        -486.0309  -348.9267   633.9476 C5            1 RES     
   21387 C5        -486.7852  -350.0529   634.6771 C5            1 RES     
   21388 C5        -485.9591  -350.7521   635.7510 C5            1 RES     
   21389 C5        -482.2101  -346.7614   630.0861 C5            1 RES     
   21390 C0        -482.4283  -345.5111   631.0226 C0            1 RES     
   21391 C5        -480.9935  -344.8362   631.1432 C5            1 RES     
   21392 C5        -480.2472  -345.1215   632.4894 C5            1 RES     
   21393 C5        -480.6281  -344.1327   633.6402 C5            1 RES     
   21394 C5        -480.0314  -342.7104   633.5229 C5            1 RES     
   21395 C5        -480.5671  -341.7100   634.5632 C5            1 RES     
   21396 C5        -480.0903  -341.9397   636.0101 C5            1 RES     
   21397 C5        -478.5666  -341.8129   636.2247 C5            1 RES     
   21398 C5        -478.0085  -340.4363   635.8485 C5            1 RES     
   21399 C5        -478.7007  -345.2967   632.3255 C5            1 RES     
   21400 C5        -477.9492  -344.2708   631.4381 C5            1 RES     
   21401 C5        -476.4118  -344.4069   631.5187 C5            1 RES     
   21402 C5        -475.8758  -345.7836   631.0822 C5            1 RES     
   21403 C5        -474.3397  -345.8944   631.1601 C5            1 RES     
   21404 C5        -473.6082  -344.9925   630.1470 C5            1 RES     
   21405 C5        -472.0748  -345.1018   630.2262 C5            1 RES     
   21406 C5        -471.5373  -346.4893   629.8728 C5            1 RES     
   21407 H6        -487.5438  -349.6687   623.0405 H6            1 RES     
   21408 H6        -488.9846  -348.8517   622.3535 H6            1 RES     
   21409 H6        -489.1134  -349.6845   623.9481 H6            1 RES     
   21410 H6        -487.4086  -347.1758   623.3228 H6            1 RES     
   21411 H6        -489.0023  -347.1899   624.1594 H6            1 RES     
   21412 H6        -487.2031  -346.9603   625.7928 H6            1 RES     
   21413 H6        -488.0845  -348.5116   626.0284 H6            1 RES     
   21414 H6        -485.3430  -348.2163   624.5992 H6            1 RES     
   21415 H6        -486.2413  -349.7560   624.9083 H6            1 RES     
   21416 H6        -485.1472  -347.8180   627.0515 H6            1 RES     
   21417 H6        -486.1712  -349.2865   627.3571 H6            1 RES     
   21418 H6        -484.5559  -350.7639   626.3923 H6            1 RES     
   21419 H6        -483.4024  -349.4396   626.0123 H6            1 RES     
   21420 H6        -484.4512  -350.1575   628.8350 H6            1 RES     
   21421 H6        -482.9667  -350.8302   628.1256 H6            1 RES     
   21422 H6        -482.6126  -348.0401   627.7815 H6            1 RES     
   21423 H6        -481.6756  -349.1448   628.8064 H6            1 RES     
   21424 H6        -484.1601  -347.6657   629.6029 H6            1 RES     
   21425 H6        -483.7777  -349.8369   630.8007 H6            1 RES     
   21426 H6        -482.3431  -349.1683   631.5848 H6            1 RES     
   21427 H6        -483.8770  -347.4702   632.7306 H6            1 RES     
   21428 H6        -485.2017  -347.9658   631.6134 H6            1 RES     
   21429 H6        -484.0236  -349.8217   633.7594 H6            1 RES     
   21430 H6        -485.2201  -350.2661   632.4836 H6            1 RES     
   21431 H6        -485.6981  -348.1448   634.6627 H6            1 RES     
   21432 H6        -486.7705  -348.4687   633.2530 H6            1 RES     
   21433 H6        -487.1375  -350.8055   633.9367 H6            1 RES     
   21434 H6        -487.6820  -349.6119   635.1641 H6            1 RES     
   21435 H6        -485.6315  -350.0195   636.5177 H6            1 RES     
   21436 H6        -485.0744  -351.2539   635.3093 H6            1 RES     
   21437 H6        -486.5861  -351.5261   636.2439 H6            1 RES     
   21438 H6        -482.0288  -346.3085   629.0859 H6            1 RES     
   21439 H6        -481.2587  -347.2525   630.3977 H6            1 RES     
   21440 H6        -480.3635  -345.2273   630.3168 H6            1 RES     
   21441 H6        -480.9739  -343.7624   630.9113 H6            1 RES     
   21442 H6        -480.5948  -346.1219   632.8362 H6            1 RES     
   21443 H6        -481.7371  -344.0745   633.6874 H6            1 RES     
   21444 H6        -480.2747  -344.5573   634.6042 H6            1 RES     
   21445 H6        -478.9313  -342.7348   633.6089 H6            1 RES     
   21446 H6        -480.2775  -342.3056   632.5303 H6            1 RES     
   21447 H6        -480.2627  -340.6873   634.2567 H6            1 RES     
   21448 H6        -481.6754  -341.7297   634.5425 H6            1 RES     
   21449 H6        -480.4219  -342.9411   636.3544 H6            1 RES     
   21450 H6        -480.5889  -341.1824   636.6546 H6            1 RES     
   21451 H6        -478.0233  -342.5961   635.6575 H6            1 RES     
   21452 H6        -478.3606  -341.9799   637.3040 H6            1 RES     
   21453 H6        -478.5252  -339.6368   636.4210 H6            1 RES     
   21454 H6        -476.9247  -340.3974   636.0877 H6            1 RES     
   21455 H6        -478.1178  -340.2408   634.7621 H6            1 RES     
   21456 H6        -478.5347  -346.2856   631.8479 H6            1 RES     
   21457 H6        -478.2492  -345.3415   633.3406 H6            1 RES     
   21458 H6        -478.1741  -343.2329   631.7220 H6            1 RES     
   21459 H6        -478.2669  -344.3830   630.3822 H6            1 RES     
   21460 H6        -475.9878  -343.6185   630.8633 H6            1 RES     
   21461 H6        -476.0835  -344.2031   632.5618 H6            1 RES     
   21462 H6        -476.2119  -346.0158   630.0485 H6            1 RES     
   21463 H6        -476.2866  -346.5548   631.7668 H6            1 RES     
   21464 H6        -474.0020  -345.6582   632.1932 H6            1 RES     
   21465 H6        -474.0827  -346.9520   630.9440 H6            1 RES     
   21466 H6        -473.8612  -343.9317   630.3469 H6            1 RES     
   21467 H6        -473.9411  -345.2436   629.1162 H6            1 RES     
   21468 H6        -471.6427  -344.3769   629.5021 H6            1 RES     
   21469 H6        -471.7286  -344.8198   631.2441 H6            1 RES     
   21470 H6        -471.8777  -347.2512   630.6027 H6            1 RES     
   21471 H6        -470.4271  -346.4697   629.8983 H6            1 RES     
   21472 H6        -471.8628  -346.7810   628.8521 H6            1 RES     
   21473 C0        -492.4568  -351.7669   625.6863 C0            1 RES     
   21474 C0        -493.9516  -351.8200   626.0032 C0            1 RES     
   21475 C0        -494.2210  -351.2752   627.2140 C0            1 RES     
   21476 S1        -495.8534  -351.2520   627.5831 S1            1 RES     
   21477 C0        -496.2766  -351.9837   626.1041 C0            1 RES     
   21478 C0        -495.1187  -352.1799   625.3324 C0            1 RES     
   21479 C0        -493.0314  -350.7163   627.7572 C0            1 RES     
   21480 C0        -492.0552  -350.9154   626.9006 C0            1 RES     
   21481 C0        -490.8751  -350.1457   627.2480 C0            1 RES     
   21482 C0        -491.0894  -349.4241   628.4125 C0            1 RES     
   21483 S1        -492.7165  -349.6580   629.1568 S1            1 RES     
   21484 H2        -495.1599  -352.5144   624.3177 H2            1 RES     
   21485 H2        -490.0060  -350.0176   626.6260 H2            1 RES     
   21486 N3        -499.0608  -353.6793   624.2166 N3            1 RES     
   21487 C0        -497.8215  -353.3098   624.6491 C0            1 RES     
   21488 C0        -497.6501  -352.3411   625.6584 C0            1 RES     
   21489 C0        -498.8163  -351.7826   626.2074 C0            1 RES     
   21490 N3        -498.8307  -350.8363   627.1838 N3            1 RES     
   21491 S1        -500.4478  -350.5560   627.3868 S1            1 RES     
   21492 N3        -501.1665  -351.5734   626.3021 N3            1 RES     
   21493 C0        -500.0942  -352.1789   625.7299 C0            1 RES     
   21494 C0        -500.1986  -353.1359   624.7290 C0            1 RES     
   21495 H4        -496.9640  -353.8007   624.2237 H4            1 RES     
   21496 C5        -499.5839  -352.4784   618.8949 C5            1 RES     
   21497 C5        -498.6984  -351.5912   619.7712 C5            1 RES     
   21498 C5        -497.9356  -352.3631   620.8625 C5            1 RES     
   21499 C5        -496.9517  -353.4174   620.3180 C5            1 RES     
   21500 C5        -496.1992  -354.0978   621.4746 C5            1 RES     
   21501 C5        -495.3653  -355.3018   621.0141 C5            1 RES     
   21502 C5        -494.6780  -356.0316   622.1928 C5            1 RES     
   21503 C5        -493.3712  -355.3594   622.7176 C5            1 RES     
   21504 C5        -493.3792  -354.8773   624.2010 C5            1 RES     
   21505 C5        -493.6422  -356.0413   625.2005 C5            1 RES     
   21506 C5        -494.2344  -355.5498   626.5346 C5            1 RES     
   21507 C5        -494.9602  -356.6876   627.2842 C5            1 RES     
   21508 C5        -495.7871  -356.1349   628.4592 C5            1 RES     
   21509 C5        -496.7622  -357.1656   629.0561 C5            1 RES     
   21510 C5        -496.0731  -358.3512   629.7225 C5            1 RES     
   21511 C5        -492.0457  -354.1004   624.4516 C5            1 RES     
   21512 C0        -491.7029  -353.1704   625.6786 C0            1 RES     
   21513 C5        -490.1235  -352.9923   625.6271 C5            1 RES     
   21514 C5        -489.3333  -353.8568   626.6656 C5            1 RES     
   21515 C5        -489.1991  -353.1828   628.0709 C5            1 RES     
   21516 C5        -488.1869  -352.0164   628.1577 C5            1 RES     
   21517 C5        -488.2087  -351.2558   629.4961 C5            1 RES     
   21518 C5        -487.6373  -352.0232   630.7036 C5            1 RES     
   21519 C5        -486.1437  -352.3986   630.5930 C5            1 RES     
   21520 C5        -485.2190  -351.1873   630.4329 C5            1 RES     
   21521 C5        -487.9718  -354.4039   626.1213 C5            1 RES     
   21522 C5        -487.0548  -353.4179   625.3522 C5            1 RES     
   21523 C5        -485.6545  -353.9982   625.0504 C5            1 RES     
   21524 C5        -485.6726  -355.2794   624.1953 C5            1 RES     
   21525 C5        -484.2655  -355.8354   623.8971 C5            1 RES     
   21526 C5        -483.4259  -354.9203   622.9846 C5            1 RES     
   21527 C5        -482.0206  -355.4746   622.6886 C5            1 RES     
   21528 C5        -482.0292  -356.7905   621.9092 C5            1 RES     
   21529 H6        -498.9739  -353.1960   618.3097 H6            1 RES     
   21530 H6        -500.1430  -351.8430   618.1752 H6            1 RES     
   21531 H6        -500.3160  -353.0346   619.5180 H6            1 RES     
   21532 H6        -497.9808  -351.0382   619.1285 H6            1 RES     
   21533 H6        -499.3549  -350.8478   620.2755 H6            1 RES     
   21534 H6        -497.3712  -351.6219   621.4689 H6            1 RES     
   21535 H6        -498.6753  -352.8607   621.5279 H6            1 RES     
   21536 H6        -496.2203  -352.9435   619.6275 H6            1 RES     
   21537 H6        -497.5259  -354.1885   619.7626 H6            1 RES     
   21538 H6        -495.5616  -353.3521   621.9960 H6            1 RES     
   21539 H6        -496.9614  -354.4958   622.1728 H6            1 RES     
   21540 H6        -496.0802  -356.0180   620.5513 H6            1 RES     
   21541 H6        -494.6179  -355.0207   620.2413 H6            1 RES     
   21542 H6        -495.4387  -356.2079   622.9799 H6            1 RES     
   21543 H6        -494.3767  -357.0326   621.8173 H6            1 RES     
   21544 H6        -493.1687  -354.4815   622.0637 H6            1 RES     
   21545 H6        -492.5175  -356.0545   622.5640 H6            1 RES     
   21546 H6        -494.2326  -354.2372   624.2225 H6            1 RES     
   21547 H6        -494.4285  -356.6796   624.7624 H6            1 RES     
   21548 H6        -492.7584  -356.7013   625.3371 H6            1 RES     
   21549 H6        -493.4651  -355.0533   627.1630 H6            1 RES     
   21550 H6        -495.0219  -354.8069   626.2888 H6            1 RES     
   21551 H6        -494.2380  -357.4623   627.6199 H6            1 RES     
   21552 H6        -495.6805  -357.1587   626.5788 H6            1 RES     
   21553 H6        -495.1168  -355.7232   629.2431 H6            1 RES     
   21554 H6        -496.4224  -355.3051   628.0757 H6            1 RES     
   21555 H6        -497.4445  -357.5377   628.2593 H6            1 RES     
   21556 H6        -497.3841  -356.6529   629.8217 H6            1 RES     
   21557 H6        -495.4168  -357.9981   630.5450 H6            1 RES     
   21558 H6        -495.4763  -358.9294   628.9881 H6            1 RES     
   21559 H6        -496.8457  -359.0266   630.1491 H6            1 RES     
   21560 H6        -491.8664  -353.4447   623.5705 H6            1 RES     
   21561 H6        -491.2774  -354.9079   624.4173 H6            1 RES     
   21562 H6        -489.7816  -353.2851   624.6121 H6            1 RES     
   21563 H6        -489.7814  -351.9485   625.6540 H6            1 RES     
   21564 H6        -489.9409  -354.7749   626.8383 H6            1 RES     
   21565 H6        -490.2077  -352.8315   628.3790 H6            1 RES     
   21566 H6        -488.8752  -353.9523   628.8040 H6            1 RES     
   21567 H6        -487.1567  -352.3731   627.9855 H6            1 RES     
   21568 H6        -488.4213  -351.2867   627.3689 H6            1 RES     
   21569 H6        -487.6283  -350.3170   629.3764 H6            1 RES     
   21570 H6        -489.2520  -350.9562   629.7216 H6            1 RES     
   21571 H6        -488.2308  -352.9460   630.8702 H6            1 RES     
   21572 H6        -487.7607  -351.3795   631.6024 H6            1 RES     
   21573 H6        -485.9764  -353.1012   629.7512 H6            1 RES     
   21574 H6        -485.8557  -352.9250   631.5285 H6            1 RES     
   21575 H6        -485.3554  -350.4789   631.2776 H6            1 RES     
   21576 H6        -484.1616  -351.5265   630.4241 H6            1 RES     
   21577 H6        -485.4084  -350.6599   629.4756 H6            1 RES     
   21578 H6        -488.2121  -355.2146   625.4012 H6            1 RES     
   21579 H6        -487.4232  -354.8688   626.9694 H6            1 RES     
   21580 H6        -486.8802  -352.4891   625.9139 H6            1 RES     
   21581 H6        -487.5364  -353.1221   624.3988 H6            1 RES     
   21582 H6        -485.0892  -353.2051   624.5191 H6            1 RES     
   21583 H6        -485.1343  -354.2095   626.0107 H6            1 RES     
   21584 H6        -486.2081  -355.0946   623.2390 H6            1 RES     
   21585 H6        -486.2158  -356.0690   624.7553 H6            1 RES     
   21586 H6        -483.7272  -356.0168   624.8533 H6            1 RES     
   21587 H6        -484.4071  -356.8110   623.3877 H6            1 RES     
   21588 H6        -483.2818  -353.9382   623.4785 H6            1 RES     
   21589 H6        -483.9643  -354.7546   622.0259 H6            1 RES     
   21590 H6        -481.4784  -354.7217   622.0756 H6            1 RES     
   21591 H6        -481.4614  -355.6120   623.6393 H6            1 RES     
   21592 H6        -482.4973  -357.6046   622.4983 H6            1 RES     
   21593 H6        -480.9835  -357.0922   621.6877 H6            1 RES     
   21594 H6        -482.5729  -356.6668   620.9488 H6            1 RES     
   21595 C0        -503.8823  -354.5064   621.4290 C0            1 RES     
   21596 C0        -505.2500  -354.2272   622.0532 C0            1 RES     
   21597 C0        -505.1507  -354.0079   623.3863 C0            1 RES     
   21598 S1        -506.6140  -353.6357   624.1086 S1            1 RES     
   21599 C0        -507.4590  -353.7526   622.6341 C0            1 RES     
   21600 C0        -506.5522  -354.0317   621.5974 C0            1 RES     
   21601 C0        -503.7793  -353.9906   623.7627 C0            1 RES     
   21602 C0        -503.0548  -354.1964   622.6860 C0            1 RES     
   21603 C0        -501.6498  -353.9264   622.9286 C0            1 RES     
   21604 C0        -501.4470  -353.5474   624.2469 C0            1 RES     
   21605 S1        -502.9381  -353.5214   625.2628 S1            1 RES     
   21606 H2        -506.8438  -354.0289   620.5688 H2            1 RES     
   21607 H2        -500.8838  -353.8717   622.1743 H2            1 RES     
   21608 N3        -510.8836  -353.9671   621.0798 N3            1 RES     
   21609 C0        -509.5443  -354.1044   621.2961 C0            1 RES     
   21610 C0        -508.9214  -353.5626   622.4384 C0            1 RES     
   21611 C0        -509.7469  -352.8849   623.3509 C0            1 RES     
   21612 N3        -509.3094  -352.3017   624.4987 N3            1 RES     
   21613 S1        -510.6964  -351.6502   625.1204 S1            1 RES     
   21614 N3        -511.8565  -352.0605   624.0187 N3            1 RES     
   21615 C0        -511.1374  -352.7480   623.0945 C0            1 RES     
   21616 C0        -511.6928  -353.3004   621.9477 C0            1 RES     
   21617 H4        -508.9670  -354.6697   620.5859 H4            1 RES     
   21618 C5        -511.7191  -351.1650   616.4444 C5            1 RES     
   21619 C5        -510.4757  -350.8596   617.2810 C5            1 RES     
   21620 C5        -509.8674  -352.0990   617.9612 C5            1 RES     
   21621 C5        -509.3759  -353.1799   616.9783 C5            1 RES     
   21622 C5        -508.7375  -354.3518   617.7439 C5            1 RES     
   21623 C5        -508.4238  -355.5520   616.8393 C5            1 RES     
   21624 C5        -507.8596  -356.7571   617.6289 C5            1 RES     
   21625 C5        -506.3439  -356.6637   617.9879 C5            1 RES     
   21626 C5        -505.9833  -356.6550   619.5055 C5            1 RES     
   21627 C5        -506.4749  -357.9373   620.2383 C5            1 RES     
   21628 C5        -506.6772  -357.7120   621.7484 C5            1 RES     
   21629 C5        -507.6267  -358.7672   622.3552 C5            1 RES     
   21630 C5        -508.0499  -358.3734   623.7819 C5            1 RES     
   21631 C5        -509.2179  -359.2159   624.3254 C5            1 RES     
   21632 C5        -508.8752  -360.6882   624.5237 C5            1 RES     
   21633 C5        -504.4464  -356.3933   619.6235 C5            1 RES     
   21634 C0        -503.6460  -355.9988   620.9241 C0            1 RES     
   21635 C5        -502.1208  -356.2650   620.5612 C5            1 RES     
   21636 C5        -501.5250  -357.5813   621.1637 C5            1 RES     
   21637 C5        -500.9790  -357.4143   622.6201 C5            1 RES     
   21638 C5        -499.6355  -356.6582   622.7466 C5            1 RES     
   21639 C5        -499.2158  -356.3486   624.1951 C5            1 RES     
   21640 C5        -498.7682  -357.5640   625.0293 C5            1 RES     
   21641 C5        -497.5150  -358.2947   624.5006 C5            1 RES     
   21642 C5        -496.2728  -357.4008   624.4237 C5            1 RES     
   21643 C5        -500.5128  -358.3048   620.2143 C5            1 RES     
   21644 C5        -499.4379  -357.4365   619.5106 C5            1 RES     
   21645 C5        -498.3666  -358.2723   618.7741 C5            1 RES     
   21646 C5        -498.9287  -359.1879   617.6701 C5            1 RES     
   21647 C5        -497.8424  -360.0044   616.9412 C5            1 RES     
   21648 C5        -496.8834  -359.1372   616.1027 C5            1 RES     
   21649 C5        -495.7980  -359.9523   615.3767 C5            1 RES     
   21650 C5        -496.3520  -360.9244   614.3340 C5            1 RES     
   21651 H6        -511.4703  -351.8212   615.5859 H6            1 RES     
   21652 H6        -512.1307  -350.2166   616.0381 H6            1 RES     
   21653 H6        -512.4993  -351.6499   617.0689 H6            1 RES     
   21654 H6        -509.7129  -350.3680   616.6407 H6            1 RES     
   21655 H6        -510.7707  -350.1432   618.0796 H6            1 RES     
   21656 H6        -509.0099  -351.7577   618.5808 H6            1 RES     
   21657 H6        -510.6292  -352.5405   618.6410 H6            1 RES     
   21658 H6        -508.6331  -352.7504   616.2711 H6            1 RES     
   21659 H6        -510.2453  -353.5607   616.4022 H6            1 RES     
   21660 H6        -507.8222  -354.0021   618.2676 H6            1 RES     
   21661 H6        -509.4828  -354.7055   618.4830 H6            1 RES     
   21662 H6        -509.3933  -355.8700   616.3953 H6            1 RES     
   21663 H6        -507.7417  -355.2791   616.0055 H6            1 RES     
   21664 H6        -508.5174  -356.9347   618.5036 H6            1 RES     
   21665 H6        -507.9634  -357.6468   616.9721 H6            1 RES     
   21666 H6        -505.9553  -355.7270   617.5288 H6            1 RES     
   21667 H6        -505.7998  -357.4942   617.4880 H6            1 RES     
   21668 H6        -506.5639  -355.8363   619.8676 H6            1 RES     
   21669 H6        -507.4817  -358.1714   619.8519 H6            1 RES     
   21670 H6        -505.8504  -358.8291   620.0142 H6            1 RES     
   21671 H6        -505.7066  -357.6585   622.2854 H6            1 RES     
   21672 H6        -507.1996  -356.7397   621.8668 H6            1 RES     
   21673 H6        -507.1631  -359.7765   622.3291 H6            1 RES     
   21674 H6        -508.5539  -358.7888   621.7402 H6            1 RES     
   21675 H6        -507.1781  -358.4150   624.4686 H6            1 RES     
   21676 H6        -508.4209  -357.3241   623.7561 H6            1 RES     
   21677 H6        -510.0896  -359.1310   623.6386 H6            1 RES     
   21678 H6        -509.5206  -358.7965   625.3095 H6            1 RES     
   21679 H6        -508.0304  -360.7908   625.2363 H6            1 RES     
   21680 H6        -508.6133  -361.1696   623.5596 H6            1 RES     
   21681 H6        -509.7603  -361.2131   624.9436 H6            1 RES     
   21682 H6        -504.1852  -355.5866   618.9028 H6            1 RES     
   21683 H6        -504.0026  -357.3373   619.2295 H6            1 RES     
   21684 H6        -502.0413  -356.3318   619.4558 H6            1 RES     
   21685 H6        -501.4514  -355.4152   620.7534 H6            1 RES     
   21686 H6        -502.3723  -358.3000   621.2495 H6            1 RES     
   21687 H6        -501.7601  -356.8997   623.2207 H6            1 RES     
   21688 H6        -500.8295  -358.4231   623.0608 H6            1 RES     
   21689 H6        -498.8170  -357.2235   622.2684 H6            1 RES     
   21690 H6        -499.7225  -355.6945   622.2236 H6            1 RES     
   21691 H6        -498.3795  -355.6188   624.1704 H6            1 RES     
   21692 H6        -500.0580  -355.8473   624.7134 H6            1 RES     
   21693 H6        -499.6046  -358.2892   625.1050 H6            1 RES     
   21694 H6        -498.5436  -357.2040   626.0576 H6            1 RES     
   21695 H6        -497.7101  -358.7375   623.5026 H6            1 RES     
   21696 H6        -497.2898  -359.1306   625.1976 H6            1 RES     
   21697 H6        -496.0465  -356.9621   625.4189 H6            1 RES     
   21698 H6        -495.4002  -358.0056   624.0980 H6            1 RES     
   21699 H6        -496.4087  -356.5854   623.6840 H6            1 RES     
   21700 H6        -501.1070  -358.7674   619.3980 H6            1 RES     
   21701 H6        -500.0364  -359.1322   620.7843 H6            1 RES     
   21702 H6        -498.8881  -356.8011   620.2194 H6            1 RES     
   21703 H6        -499.9227  -356.7517   618.7863 H6            1 RES     
   21704 H6        -497.6505  -357.5509   618.3294 H6            1 RES     
   21705 H6        -497.8169  -358.8926   619.5159 H6            1 RES     
   21706 H6        -499.5009  -358.5886   616.9293 H6            1 RES     
   21707 H6        -499.6189  -359.9207   618.1377 H6            1 RES     
   21708 H6        -497.2664  -360.6015   617.6821 H6            1 RES     
   21709 H6        -498.3697  -360.7072   616.2634 H6            1 RES     
   21710 H6        -496.3537  -358.4246   616.7668 H6            1 RES     
   21711 H6        -497.4650  -358.5538   615.3559 H6            1 RES     
   21712 H6        -495.1283  -359.2373   614.8505 H6            1 RES     
   21713 H6        -495.1886  -360.5134   616.1179 H6            1 RES     
   21714 H6        -496.9762  -361.7093   614.8066 H6            1 RES     
   21715 H6        -495.5077  -361.4294   613.8186 H6            1 RES     
   21716 H6        -496.9527  -360.3775   613.5770 H6            1 RES     
   21717 C0        -516.0466  -352.5514   619.3361 C0            1 RES     
   21718 C0        -517.1423  -352.0944   620.2997 C0            1 RES     
   21719 C0        -516.7899  -352.3119   621.5896 C0            1 RES     
   21720 S1        -517.9301  -351.7717   622.6894 S1            1 RES     
   21721 C0        -518.9639  -351.2095   621.4577 C0            1 RES     
   21722 C0        -518.3560  -351.4162   620.2076 C0            1 RES     
   21723 C0        -515.4521  -352.7919   621.6408 C0            1 RES     
   21724 C0        -514.9956  -352.8686   620.4111 C0            1 RES     
   21725 C0        -513.5613  -353.0879   620.3870 C0            1 RES     
   21726 C0        -513.0615  -353.1844   621.6769 C0            1 RES     
   21727 S1        -514.3014  -353.0386   622.9797 S1            1 RES     
   21728 H2        -518.7714  -351.0305   619.3011 H2            1 RES     
   21729 H2        -512.9343  -353.0326   619.5138 H2            1 RES     
   21730 N3        -522.4476  -349.9876   620.7089 N3            1 RES     
   21731 C0        -521.2135  -350.5530   620.5796 C0            1 RES     
   21732 C0        -520.2925  -350.5674   621.6464 C0            1 RES     
   21733 C0        -520.7097  -349.9828   622.8537 C0            1 RES     
   21734 N3        -519.9471  -349.9087   623.9771 N3            1 RES     
   21735 S1        -520.9375  -349.1052   625.0298 S1            1 RES     
   21736 N3        -522.3103  -348.8316   624.1532 N3            1 RES     
   21737 C0        -521.9974  -349.3917   622.9564 C0            1 RES     
   21738 C0        -522.8596  -349.4048   621.8678 C0            1 RES     
   21739 H4        -520.9622  -351.0242   619.6458 H4            1 RES     
   21740 C5        -522.9470  -345.8353   617.1669 C5            1 RES     
   21741 C5        -521.5684  -346.1507   617.7495 C5            1 RES     
   21742 C5        -521.3169  -347.6534   617.9663 C5            1 RES     
   21743 C5        -521.3550  -348.4919   616.6735 C5            1 RES     
   21744 C5        -521.0411  -349.9665   616.9801 C5            1 RES     
   21745 C5        -521.2736  -350.8869   615.7735 C5            1 RES     
   21746 C5        -521.0366  -352.3781   616.1119 C5            1 RES     
   21747 C5        -519.5414  -352.8240   616.1318 C5            1 RES     
   21748 C5        -518.9893  -353.3615   617.4881 C5            1 RES     
   21749 C5        -519.7708  -354.6097   617.9925 C5            1 RES     
   21750 C5        -519.6729  -354.7888   619.5190 C5            1 RES     
   21751 C5        -520.8239  -355.6637   620.0605 C5            1 RES     
   21752 C5        -520.8879  -355.6023   621.5973 C5            1 RES     
   21753 C5        -522.1808  -356.2029   622.1778 C5            1 RES     
   21754 C5        -522.3220  -357.7029   621.9442 C5            1 RES     
   21755 C5        -517.4522  -353.5890   617.3146 C5            1 RES     
   21756 C0        -516.3923  -353.8341   618.4567 C0            1 RES     
   21757 C5        -515.1088  -354.4001   617.7077 C5            1 RES     
   21758 C5        -514.9054  -355.9469   617.8359 C5            1 RES     
   21759 C5        -514.1365  -356.3740   619.1296 C5            1 RES     
   21760 C5        -512.6145  -356.0978   619.1232 C5            1 RES     
   21761 C5        -511.9171  -356.3568   620.4710 C5            1 RES     
   21762 C5        -511.7860  -357.8376   620.8754 C5            1 RES     
   21763 C5        -510.9336  -358.7030   619.9224 C5            1 RES     
   21764 C5        -509.4890  -358.2129   619.7786 C5            1 RES     
   21765 C5        -514.3344  -356.6150   616.5409 C5            1 RES     
   21766 C5        -513.1422  -355.9178   615.8359 C5            1 RES     
   21767 C5        -512.5235  -356.7673   614.7028 C5            1 RES     
   21768 C5        -513.5065  -357.1231   613.5713 C5            1 RES     
   21769 C5        -512.8664  -357.9615   612.4464 C5            1 RES     
   21770 C5        -511.8015  -357.1932   611.6398 C5            1 RES     
   21771 C5        -511.1613  -358.0309   610.5182 C5            1 RES     
   21772 C5        -512.1470  -358.4585   609.4297 C5            1 RES     
   21773 H6        -523.0530  -346.2538   616.1456 H6            1 RES     
   21774 H6        -523.0731  -344.7338   617.0968 H6            1 RES     
   21775 H6        -523.7481  -346.2418   617.8201 H6            1 RES     
   21776 H6        -520.7835  -345.7284   617.0868 H6            1 RES     
   21777 H6        -521.4938  -345.6466   618.7386 H6            1 RES     
   21778 H6        -520.3169  -347.7640   618.4390 H6            1 RES     
   21779 H6        -522.0788  -348.0417   618.6779 H6            1 RES     
   21780 H6        -520.6187  -348.1013   615.9375 H6            1 RES     
   21781 H6        -522.3732  -348.4269   616.2355 H6            1 RES     
   21782 H6        -519.9978  -350.0576   617.3510 H6            1 RES     
   21783 H6        -521.7501  -350.2965   617.7646 H6            1 RES     
   21784 H6        -522.3458  -350.7751   615.4976 H6            1 RES     
   21785 H6        -520.6636  -350.5853   614.8950 H6            1 RES     
   21786 H6        -521.5866  -352.6113   617.0459 H6            1 RES     
   21787 H6        -521.5209  -352.9698   615.3062 H6            1 RES     
   21788 H6        -518.9323  -351.9428   615.8288 H6            1 RES     
   21789 H6        -519.3795  -353.5897   615.3424 H6            1 RES     
   21790 H6        -519.2085  -352.5559   618.1526 H6            1 RES     
   21791 H6        -520.8418  -354.4274   617.7991 H6            1 RES     
   21792 H6        -519.5156  -355.5347   617.4316 H6            1 RES     
   21793 H6        -518.6745  -355.1699   619.8209 H6            1 RES     
   21794 H6        -519.8210  -353.7879   619.9758 H6            1 RES     
   21795 H6        -520.7300  -356.7089   619.6957 H6            1 RES     
   21796 H6        -521.7822  -355.2428   619.6826 H6            1 RES     
   21797 H6        -519.9922  -356.0864   622.0408 H6            1 RES     
   21798 H6        -520.8893  -354.5315   621.9015 H6            1 RES     
   21799 H6        -523.0621  -355.6792   621.7443 H6            1 RES     
   21800 H6        -522.1860  -356.0225   623.2747 H6            1 RES     
   21801 H6        -521.4681  -358.2427   622.4041 H6            1 RES     
   21802 H6        -522.3726  -357.9344   620.8609 H6            1 RES     
   21803 H6        -523.2630  -358.0566   622.4182 H6            1 RES     
   21804 H6        -517.0418  -352.7143   616.7625 H6            1 RES     
   21805 H6        -517.4068  -354.4613   616.6215 H6            1 RES     
   21806 H6        -515.2118  -354.1600   616.6285 H6            1 RES     
   21807 H6        -514.1753  -353.8679   617.9372 H6            1 RES     
   21808 H6        -515.9223  -356.3907   617.9401 H6            1 RES     
   21809 H6        -514.6101  -355.8598   619.9938 H6            1 RES     
   21810 H6        -514.2700  -357.4671   619.2772 H6            1 RES     
   21811 H6        -512.1057  -356.7047   618.3544 H6            1 RES     
   21812 H6        -512.4492  -355.0396   618.8732 H6            1 RES     
   21813 H6        -510.8982  -355.9177   620.4297 H6            1 RES     
   21814 H6        -512.4637  -355.8135   621.2681 H6            1 RES     
   21815 H6        -512.7964  -358.2873   620.9661 H6            1 RES     
   21816 H6        -511.3128  -357.8726   621.8816 H6            1 RES     
   21817 H6        -511.4026  -358.7608   618.9189 H6            1 RES     
   21818 H6        -510.9033  -359.7343   620.3357 H6            1 RES     
   21819 H6        -508.9927  -358.1668   620.7714 H6            1 RES     
   21820 H6        -508.9214  -358.9157   619.1327 H6            1 RES     
   21821 H6        -509.4488  -357.2130   619.3000 H6            1 RES     
   21822 H6        -515.1567  -356.6319   615.7946 H6            1 RES     
   21823 H6        -514.0847  -357.6719   616.7796 H6            1 RES     
   21824 H6        -512.3191  -355.6990   616.5310 H6            1 RES     
   21825 H6        -513.4687  -354.9436   615.4200 H6            1 RES     
   21826 H6        -511.6784  -356.1792   614.2893 H6            1 RES     
   21827 H6        -512.1126  -357.7060   615.1358 H6            1 RES     
   21828 H6        -513.9453  -356.1977   613.1395 H6            1 RES     
   21829 H6        -514.3280  -357.7356   613.9979 H6            1 RES     
   21830 H6        -512.4233  -358.8859   612.8780 H6            1 RES     
   21831 H6        -513.6865  -358.2572   611.7600 H6            1 RES     
   21832 H6        -510.9778  -356.8852   612.3150 H6            1 RES     
   21833 H6        -512.2551  -356.2779   611.2006 H6            1 RES     
   21834 H6        -510.3731  -357.4118   610.0366 H6            1 RES     
   21835 H6        -510.6752  -358.9319   610.9510 H6            1 RES     
   21836 H6        -512.9235  -359.1385   609.8340 H6            1 RES     
   21837 H6        -511.5993  -359.0066   608.6340 H6            1 RES     
   21838 H6        -512.6320  -357.5682   608.9767 H6            1 RES     
   21839 C0        -527.0385  -346.7317   620.5532 C0            1 RES     
   21840 C0        -527.7738  -346.2879   621.8182 C0            1 RES     
   21841 C0        -527.3364  -346.9633   622.9081 C0            1 RES     
   21842 S1        -528.0666  -346.4707   624.3314 S1            1 RES     
   21843 C0        -529.0171  -345.3058   623.5306 C0            1 RES     
   21844 C0        -528.6938  -345.2998   622.1629 C0            1 RES     
   21845 C0        -526.2406  -347.7931   622.5431 C0            1 RES     
   21846 C0        -526.0126  -347.6317   621.2591 C0            1 RES     
   21847 C0        -524.7509  -348.2284   620.8621 C0            1 RES     
   21848 C0        -524.1357  -348.8346   621.9470 C0            1 RES     
   21849 S1        -525.0614  -348.7340   623.4927 S1            1 RES     
   21850 H2        -529.0804  -344.5653   621.4891 H2            1 RES     
   21851 H2        -524.2701  -348.0987   619.9078 H2            1 RES     
   21852 N3        -531.9662  -342.9903   623.8924 N3            1 RES     
   21853 C0        -531.0208  -343.8163   623.3601 C0            1 RES     
   21854 C0        -530.0168  -344.4005   624.1583 C0            1 RES     
   21855 C0        -530.0427  -344.1023   625.5308 C0            1 RES     
   21856 N3        -529.1492  -344.5777   626.4389 N3            1 RES     
   21857 S1        -529.6588  -343.8729   627.8454 S1            1 RES     
   21858 N3        -530.9716  -342.9803   627.3894 N3            1 RES     
   21859 C0        -531.0333  -343.2300   626.0560 C0            1 RES     
   21860 C0        -531.9946  -342.6809   625.2175 C0            1 RES     
   21861 H4        -531.0736  -344.0444   622.3102 H4            1 RES     
   21862 C5        -531.5505  -338.0185   621.6244 C5            1 RES     
   21863 C5        -530.2875  -338.8648   621.7912 C5            1 RES     
   21864 C5        -530.5213  -340.3724   621.5887 C5            1 RES     
   21865 C5        -531.0163  -340.7497   620.1785 C5            1 RES     
   21866 C5        -531.1700  -342.2754   620.0535 C5            1 RES     
   21867 C5        -531.8615  -342.6981   618.7496 C5            1 RES     
   21868 C5        -532.0879  -344.2266   618.6680 C5            1 RES     
   21869 C5        -530.8383  -345.0605   618.2459 C5            1 RES     
   21870 C5        -530.3116  -346.1038   619.2789 C5            1 RES     
   21871 C5        -531.3841  -347.1725   619.6405 C5            1 RES     
   21872 C5        -531.1382  -347.8104   621.0206 C5            1 RES     
   21873 C5        -532.4263  -348.4448   621.5876 C5            1 RES     
   21874 C5        -532.2502  -348.8204   623.0701 C5            1 RES     
   21875 C5        -533.5743  -349.1756   623.7701 C5            1 RES     
   21876 C5        -534.2366  -350.4385   623.2307 C5            1 RES     
   21877 C5        -528.9775  -346.6932   618.7154 C5            1 RES     
   21878 C0        -527.9100  -347.5495   619.4997 C0            1 RES     
   21879 C5        -527.0056  -348.2085   618.3698 C5            1 RES     
   21880 C5        -527.3113  -349.7170   618.0840 C5            1 RES     
   21881 C5        -526.5543  -350.7020   619.0348 C5            1 RES     
   21882 C5        -525.0438  -350.8757   618.7504 C5            1 RES     
   21883 C5        -524.2903  -351.7029   619.8077 C5            1 RES     
   21884 C5        -524.6027  -353.2115   619.8149 C5            1 RES     
   21885 C5        -524.2284  -353.9633   618.5192 C5            1 RES     
   21886 C5        -522.7383  -353.8795   618.1723 C5            1 RES     
   21887 C5        -527.1819  -350.1091   616.5745 C5            1 RES     
   21888 C5        -525.9372  -349.6008   615.8019 C5            1 RES     
   21889 C5        -525.8009  -350.2197   614.3923 C5            1 RES     
   21890 C5        -526.9946  -349.9373   613.4604 C5            1 RES     
   21891 C5        -526.8334  -350.5544   612.0564 C5            1 RES     
   21892 C5        -525.6982  -349.9156   611.2329 C5            1 RES     
   21893 C5        -525.5363  -350.5330   609.8322 C5            1 RES     
   21894 C5        -526.7503  -350.3281   608.9248 C5            1 RES     
   21895 H6        -531.9315  -338.0722   620.5844 H6            1 RES     
   21896 H6        -531.3124  -336.9558   621.8437 H6            1 RES     
   21897 H6        -532.3412  -338.3558   622.3277 H6            1 RES     
   21898 H6        -529.5080  -338.5056   621.0861 H6            1 RES     
   21899 H6        -529.9120  -338.7145   622.8277 H6            1 RES     
   21900 H6        -529.5588  -340.8930   621.7846 H6            1 RES     
   21901 H6        -531.2611  -340.7212   622.3427 H6            1 RES     
   21902 H6        -530.3030  -340.3844   619.4078 H6            1 RES     
   21903 H6        -532.0060  -340.2758   620.0088 H6            1 RES     
   21904 H6        -530.1749  -342.7606   620.1480 H6            1 RES     
   21905 H6        -531.8308  -342.6072   620.8781 H6            1 RES     
   21906 H6        -532.8632  -342.2137   618.7563 H6            1 RES     
   21907 H6        -531.3156  -342.3369   617.8516 H6            1 RES     
   21908 H6        -532.5474  -344.5585   619.6209 H6            1 RES     
   21909 H6        -532.8490  -344.3955   617.8768 H6            1 RES     
   21910 H6        -530.0202  -344.3377   618.0278 H6            1 RES     
   21911 H6        -531.0521  -345.5748   617.2839 H6            1 RES     
   21912 H6        -530.1555  -345.5004   620.1449 H6            1 RES     
   21913 H6        -532.3498  -346.6481   619.7414 H6            1 RES     
   21914 H6        -531.5317  -347.9255   618.8364 H6            1 RES     
   21915 H6        -530.2910  -348.5278   620.9921 H6            1 RES     
   21916 H6        -530.8801  -346.9876   621.7198 H6            1 RES     
   21917 H6        -532.7368  -349.3197   620.9773 H6            1 RES     
   21918 H6        -533.2335  -347.6800   621.5444 H6            1 RES     
   21919 H6        -531.5131  -349.6445   623.1747 H6            1 RES     
   21920 H6        -531.8535  -347.9304   623.6083 H6            1 RES     
   21921 H6        -534.2833  -348.3223   623.6809 H6            1 RES     
   21922 H6        -533.3654  -349.3303   624.8510 H6            1 RES     
   21923 H6        -533.5547  -351.3066   623.3472 H6            1 RES     
   21924 H6        -534.5125  -350.3188   622.1633 H6            1 RES     
   21925 H6        -535.1652  -350.6359   623.8084 H6            1 RES     
   21926 H6        -528.3818  -345.8476   618.3050 H6            1 RES     
   21927 H6        -529.3218  -347.3004   617.8458 H6            1 RES     
   21928 H6        -527.1732  -347.6443   617.4284 H6            1 RES     
   21929 H6        -525.9260  -348.0517   618.5010 H6            1 RES     
   21930 H6        -528.3925  -349.8670   618.3080 H6            1 RES     
   21931 H6        -526.7043  -350.3519   620.0790 H6            1 RES     
   21932 H6        -527.0210  -351.7067   618.9492 H6            1 RES     
   21933 H6        -524.8784  -351.3485   617.7668 H6            1 RES     
   21934 H6        -524.5734  -349.8819   618.7238 H6            1 RES     
   21935 H6        -523.1999  -351.5760   619.6417 H6            1 RES     
   21936 H6        -524.5080  -351.2859   620.8116 H6            1 RES     
   21937 H6        -525.6818  -353.3650   620.0232 H6            1 RES     
   21938 H6        -524.0319  -353.6710   620.6518 H6            1 RES     
   21939 H6        -524.8258  -353.5906   617.6622 H6            1 RES     
   21940 H6        -524.4845  -355.0353   618.6626 H6            1 RES     
   21941 H6        -522.1209  -354.2674   619.0103 H6            1 RES     
   21942 H6        -522.5326  -354.4924   617.2693 H6            1 RES     
   21943 H6        -522.4361  -352.8369   617.9440 H6            1 RES     
   21944 H6        -528.0592  -349.6749   616.0498 H6            1 RES     
   21945 H6        -527.2663  -351.2152   616.4971 H6            1 RES     
   21946 H6        -524.9993  -349.8358   616.3250 H6            1 RES     
   21947 H6        -525.9768  -348.4970   615.7095 H6            1 RES     
   21948 H6        -524.8754  -349.7988   613.9482 H6            1 RES     
   21949 H6        -525.6684  -351.3198   614.4901 H6            1 RES     
   21950 H6        -527.1573  -348.8417   613.3669 H6            1 RES     
   21951 H6        -527.9044  -350.3909   613.9060 H6            1 RES     
   21952 H6        -526.6665  -351.6501   612.1489 H6            1 RES     
   21953 H6        -527.7929  -350.3931   611.5227 H6            1 RES     
   21954 H6        -524.7329  -350.0633   611.7580 H6            1 RES     
   21955 H6        -525.8792  -348.8230   611.1335 H6            1 RES     
   21956 H6        -524.6630  -350.0479   609.3437 H6            1 RES     
   21957 H6        -525.3212  -351.6198   609.9216 H6            1 RES     
   21958 H6        -527.6437  -350.8496   609.3233 H6            1 RES     
   21959 H6        -526.5328  -350.7502   607.9207 H6            1 RES     
   21960 H6        -526.9707  -349.2455   608.8135 H6            1 RES     
   21961 C0        -535.1900  -338.6781   625.5397 C0            1 RES     
   21962 C0        -535.5512  -338.4359   627.0056 C0            1 RES     
   21963 C0        -535.2146  -339.4951   627.7802 C0            1 RES     
   21964 S1        -535.5326  -339.2561   629.4061 S1            1 RES     
   21965 C0        -536.1449  -337.6898   629.1347 C0            1 RES     
   21966 C0        -536.0332  -337.3750   627.7697 C0            1 RES     
   21967 C0        -534.5190  -340.4548   626.9943 C0            1 RES     
   21968 C0        -534.4327  -339.9958   625.7661 C0            1 RES     
   21969 C0        -533.5094  -340.7797   624.9670 C0            1 RES     
   21970 C0        -532.9847  -341.8242   625.7131 C0            1 RES     
   21971 S1        -533.5980  -341.9242   627.4072 S1            1 RES     
   21972 H2        -536.2445  -336.3978   627.3909 H2            1 RES     
   21973 H2        -533.1517  -340.5171   623.9864 H2            1 RES     
   21974 N3        -538.0768  -334.8502   630.6820 N3            1 RES     
   21975 C0        -537.5436  -335.7152   629.7727 C0            1 RES     
   21976 C0        -536.6890  -336.7651   630.1651 C0            1 RES     
   21977 C0        -536.4218  -336.8868   631.5388 C0            1 RES     
   21978 N3        -535.6188  -337.8383   632.0855 N3            1 RES     
   21979 S1        -535.6631  -337.4624   633.6953 S1            1 RES     
   21980 N3        -536.6553  -336.1441   633.7681 N3            1 RES     
   21981 C0        -536.9827  -335.9647   632.4625 C0            1 RES     
   21982 C0        -537.8147  -334.9473   632.0142 C0            1 RES     
   21983 H4        -537.8158  -335.6015   628.7382 H4            1 RES     
   21984 C5        -536.3568  -329.7594   629.6043 C5            1 RES     
   21985 C5        -535.4362  -330.9368   629.2799 C5            1 RES     
   21986 C5        -536.1830  -332.1897   628.7890 C5            1 RES     
   21987 C5        -536.9678  -331.9827   627.4785 C5            1 RES     
   21988 C5        -537.6350  -333.2974   627.0385 C5            1 RES     
   21989 C5        -538.6032  -333.1076   625.8622 C5            1 RES     
   21990 C5        -539.3331  -334.4171   625.4790 C5            1 RES     
   21991 C5        -538.5034  -335.4070   624.6035 C5            1 RES     
   21992 C5        -538.2135  -336.8110   625.2183 C5            1 RES     
   21993 C5        -539.5179  -337.5919   625.5524 C5            1 RES     
   21994 C5        -539.3068  -338.6479   626.6534 C5            1 RES     
   21995 C5        -540.6394  -339.0315   627.3318 C5            1 RES     
   21996 C5        -540.3920  -339.8581   628.6066 C5            1 RES     
   21997 C5        -541.6469  -340.0153   629.4841 C5            1 RES     
   21998 C5        -542.7595  -340.8254   628.8281 C5            1 RES     
   21999 C5        -537.2437  -337.5599   624.2472 C5            1 RES     
   22000 C0        -536.4221  -338.8722   624.5485 C0            1 RES     
   22001 C5        -535.9556  -339.3982   623.1222 C5            1 RES     
   22002 C5        -536.7814  -340.6072   622.5684 C5            1 RES     
   22003 C5        -536.2690  -341.9986   623.0671 C5            1 RES     
   22004 C5        -534.9574  -342.4988   622.4173 C5            1 RES     
   22005 C5        -534.3808  -343.7762   623.0545 C5            1 RES     
   22006 C5        -535.1719  -345.0692   622.7793 C5            1 RES     
   22007 C5        -535.2539  -345.4824   621.2938 C5            1 RES     
   22008 C5        -533.8847  -345.7232   620.6496 C5            1 RES     
   22009 C5        -537.0025  -340.5603   621.0198 C5            1 RES     
   22010 C5        -535.7811  -340.2196   620.1274 C5            1 RES     
   22011 C5        -536.0569  -340.4111   618.6188 C5            1 RES     
   22012 C5        -537.2074  -339.5446   618.0721 C5            1 RES     
   22013 C5        -537.4587  -339.7430   616.5637 C5            1 RES     
   22014 C5        -536.3032  -339.2375   615.6783 C5            1 RES     
   22015 C5        -536.5534  -339.4374   614.1726 C5            1 RES     
   22016 C5        -537.7451  -338.6432   613.6357 C5            1 RES     
   22017 H6        -536.8759  -329.3971   628.6939 H6            1 RES     
   22018 H6        -535.7513  -328.9193   630.0063 H6            1 RES     
   22019 H6        -537.1078  -330.0512   630.3689 H6            1 RES     
   22020 H6        -534.6887  -330.6215   628.5213 H6            1 RES     
   22021 H6        -534.8906  -331.2084   630.2109 H6            1 RES     
   22022 H6        -535.4305  -332.9935   628.6359 H6            1 RES     
   22023 H6        -536.8832  -332.5212   629.5874 H6            1 RES     
   22024 H6        -536.2892  -331.6238   626.6741 H6            1 RES     
   22025 H6        -537.7574  -331.2216   627.6515 H6            1 RES     
   22026 H6        -536.8545  -334.0482   626.7904 H6            1 RES     
   22027 H6        -538.2460  -333.6561   627.8899 H6            1 RES     
   22028 H6        -539.3759  -332.3852   626.2073 H6            1 RES     
   22029 H6        -538.1000  -332.6683   624.9742 H6            1 RES     
   22030 H6        -539.7383  -334.8700   626.4064 H6            1 RES     
   22031 H6        -540.2101  -334.1259   624.8626 H6            1 RES     
   22032 H6        -537.5309  -334.9127   624.3818 H6            1 RES     
   22033 H6        -539.0084  -335.5355   623.6216 H6            1 RES     
   22034 H6        -537.7462  -336.5568   626.1432 H6            1 RES     
   22035 H6        -540.2306  -336.8707   625.9878 H6            1 RES     
   22036 H6        -540.0183  -338.0034   624.6492 H6            1 RES     
   22037 H6        -538.7586  -339.5335   626.2681 H6            1 RES     
   22038 H6        -538.6949  -338.1732   627.4488 H6            1 RES     
   22039 H6        -541.3051  -339.5652   626.6201 H6            1 RES     
   22040 H6        -541.1447  -338.0929   627.6513 H6            1 RES     
   22041 H6        -539.9633  -340.8492   628.3471 H6            1 RES     
   22042 H6        -539.6510  -339.3137   629.2342 H6            1 RES     
   22043 H6        -542.0376  -339.0099   629.7587 H6            1 RES     
   22044 H6        -541.3518  -340.5316   630.4233 H6            1 RES     
   22045 H6        -542.3952  -341.8446   628.5820 H6            1 RES     
   22046 H6        -543.1268  -340.3260   627.9085 H6            1 RES     
   22047 H6        -543.6103  -340.9137   629.5376 H6            1 RES     
   22048 H6        -536.4648  -336.8345   623.9222 H6            1 RES     
   22049 H6        -537.8883  -337.7635   623.3604 H6            1 RES     
   22050 H6        -536.0567  -338.5599   622.4012 H6            1 RES     
   22051 H6        -534.8780  -339.5968   623.0396 H6            1 RES     
   22052 H6        -537.8084  -340.5059   622.9888 H6            1 RES     
   22053 H6        -536.1462  -341.9420   624.1704 H6            1 RES     
   22054 H6        -537.0498  -342.7605   622.8566 H6            1 RES     
   22055 H6        -535.0979  -342.6897   621.3392 H6            1 RES     
   22056 H6        -534.1925  -341.7150   622.5183 H6            1 RES     
   22057 H6        -533.3448  -343.9182   622.6814 H6            1 RES     
   22058 H6        -534.3048  -343.6276   624.1505 H6            1 RES     
   22059 H6        -536.2002  -344.9670   623.1836 H6            1 RES     
   22060 H6        -534.6746  -345.8946   623.3350 H6            1 RES     
   22061 H6        -535.8076  -344.7230   620.7048 H6            1 RES     
   22062 H6        -535.8285  -346.4320   621.2367 H6            1 RES     
   22063 H6        -533.3201  -346.4967   621.2126 H6            1 RES     
   22064 H6        -534.0229  -346.0770   619.6060 H6            1 RES     
   22065 H6        -533.2888  -344.7886   620.6091 H6            1 RES     
   22066 H6        -537.7504  -339.7632   620.8226 H6            1 RES     
   22067 H6        -537.4592  -341.5248   620.7073 H6            1 RES     
   22068 H6        -534.9108  -340.8512   620.3560 H6            1 RES     
   22069 H6        -535.4645  -339.1727   620.3067 H6            1 RES     
   22070 H6        -535.1162  -340.1567   618.0885 H6            1 RES     
   22071 H6        -536.2848  -341.4824   618.4245 H6            1 RES     
   22072 H6        -537.0087  -338.4702   618.2762 H6            1 RES     
   22073 H6        -538.1442  -339.8338   618.5926 H6            1 RES     
   22074 H6        -537.6537  -340.8186   616.3577 H6            1 RES     
   22075 H6        -538.3751  -339.1697   616.3127 H6            1 RES     
   22076 H6        -535.3781  -339.7976   615.9230 H6            1 RES     
   22077 H6        -536.1233  -338.1589   615.8802 H6            1 RES     
   22078 H6        -535.6463  -339.0967   613.6272 H6            1 RES     
   22079 H6        -536.7010  -340.5174   613.9549 H6            1 RES     
   22080 H6        -538.6957  -338.9852   614.0921 H6            1 RES     
   22081 H6        -537.8232  -338.7964   612.5384 H6            1 RES     
   22082 H6        -537.6071  -337.5592   613.8329 H6            1 RES     
   22083 C0        -539.4219  -330.4846   633.9736 C0            1 RES     
   22084 C0        -539.4729  -330.5907   635.4981 C0            1 RES     
   22085 C0        -539.4018  -331.8800   635.9076 C0            1 RES     
   22086 S1        -539.3912  -332.0480   637.5729 S1            1 RES     
   22087 C0        -539.4806  -330.3648   637.8200 C0            1 RES     
   22088 C0        -539.4633  -329.7091   636.5772 C0            1 RES     
   22089 C0        -539.1816  -332.7228   634.7834 C0            1 RES     
   22090 C0        -539.1210  -331.9681   633.7094 C0            1 RES     
   22091 C0        -538.6320  -332.7104   632.5625 C0            1 RES     
   22092 C0        -538.3845  -334.0308   632.9060 C0            1 RES     
   22093 S1        -538.7524  -334.4455   634.6233 S1            1 RES     
   22094 H2        -539.3892  -328.6458   636.4947 H2            1 RES     
   22095 H2        -538.3486  -332.2840   631.6156 H2            1 RES     
   22096 N3        -540.1233  -327.6792   640.3820 N3            1 RES     
   22097 C0        -540.0405  -328.3535   639.1997 C0            1 RES     
   22098 C0        -539.5368  -329.6682   639.1332 C0            1 RES     
   22099 C0        -539.1353  -330.2566   640.3439 C0            1 RES     
   22100 N3        -538.6253  -331.5120   640.4579 N3            1 RES     
   22101 S1        -538.3162  -331.6271   642.0784 S1            1 RES     
   22102 N3        -538.7940  -330.1645   642.6787 N3            1 RES     
   22103 C0        -539.2230  -329.5265   641.5594 C0            1 RES     
   22104 C0        -539.7243  -328.2314   641.5603 C0            1 RES     
   22105 H4        -540.4017  -327.8704   638.3091 H4            1 RES     
   22106 C5        -536.9803  -323.1947   640.1641 C5            1 RES     
   22107 C5        -536.5578  -324.4348   639.3749 C5            1 RES     
   22108 C5        -537.7391  -325.2262   638.7861 C5            1 RES     
   22109 C5        -538.5862  -324.4328   637.7716 C5            1 RES     
   22110 C5        -539.7066  -325.3180   637.1987 C5            1 RES     
   22111 C5        -540.7118  -324.5281   636.3485 C5            1 RES     
   22112 C5        -541.8810  -325.4075   635.8447 C5            1 RES     
   22113 C5        -541.5583  -326.2894   634.5984 C5            1 RES     
   22114 C5        -541.6677  -327.8339   634.7867 C5            1 RES     
   22115 C5        -543.0968  -328.2786   635.2142 C5            1 RES     
   22116 C5        -543.0960  -329.6253   635.9614 C5            1 RES     
   22117 C5        -544.3713  -329.7997   636.8137 C5            1 RES     
   22118 C5        -544.2361  -330.9978   637.7708 C5            1 RES     
   22119 C5        -545.3358  -331.0453   638.8467 C5            1 RES     
   22120 C5        -546.7346  -331.2809   638.2877 C5            1 RES     
   22121 C5        -541.1477  -328.5069   633.4748 C5            1 RES     
   22122 C0        -540.7746  -330.0255   633.2683 C0            1 RES     
   22123 C5        -540.7139  -330.2200   631.6911 C5            1 RES     
   22124 C5        -541.9632  -330.9308   631.0710 C5            1 RES     
   22125 C5        -541.8771  -332.4924   631.1023 C5            1 RES     
   22126 C5        -540.9108  -333.1282   630.0754 C5            1 RES     
   22127 C5        -540.7075  -334.6443   630.2499 C5            1 RES     
   22128 C5        -541.9132  -335.5230   629.8658 C5            1 RES     
   22129 C5        -542.3351  -335.4429   628.3827 C5            1 RES     
   22130 C5        -541.2282  -335.8595   627.4086 C5            1 RES     
   22131 C5        -542.3711  -330.3725   629.6670 C5            1 RES     
   22132 C5        -541.2437  -330.1435   628.6272 C5            1 RES     
   22133 C5        -541.7761  -329.7994   627.2177 C5            1 RES     
   22134 C5        -542.6384  -328.5240   627.1622 C5            1 RES     
   22135 C5        -543.1502  -328.1933   625.7456 C5            1 RES     
   22136 C5        -542.0286  -327.7971   624.7658 C5            1 RES     
   22137 C5        -542.5395  -327.4688   623.3514 C5            1 RES     
   22138 C5        -543.4628  -326.2508   623.2974 C5            1 RES     
   22139 H6        -537.4719  -322.4512   639.5045 H6            1 RES     
   22140 H6        -536.0803  -322.7148   640.6041 H6            1 RES     
   22141 H6        -537.6705  -323.4740   640.9883 H6            1 RES     
   22142 H6        -535.8622  -324.1348   638.5626 H6            1 RES     
   22143 H6        -536.0085  -325.1088   640.0691 H6            1 RES     
   22144 H6        -537.3253  -326.1276   638.2841 H6            1 RES     
   22145 H6        -538.3903  -325.5659   639.6216 H6            1 RES     
   22146 H6        -537.9469  -324.0603   636.9417 H6            1 RES     
   22147 H6        -539.0459  -323.5658   638.2910 H6            1 RES     
   22148 H6        -539.2626  -326.1511   636.6129 H6            1 RES     
   22149 H6        -540.2763  -325.7231   638.0579 H6            1 RES     
   22150 H6        -541.1444  -323.7515   637.0177 H6            1 RES     
   22151 H6        -540.2210  -324.0082   635.4978 H6            1 RES     
   22152 H6        -542.2792  -325.9789   636.7073 H6            1 RES     
   22153 H6        -542.6888  -324.7144   635.5272 H6            1 RES     
   22154 H6        -540.5181  -326.0461   634.2851 H6            1 RES     
   22155 H6        -542.2097  -325.9774   633.7534 H6            1 RES     
   22156 H6        -541.0177  -328.0037   635.6157 H6            1 RES     
   22157 H6        -543.4612  -327.5465   635.9551 H6            1 RES     
   22158 H6        -543.8268  -328.2496   634.3765 H6            1 RES     
   22159 H6        -542.9326  -330.4761   635.2667 H6            1 RES     
   22160 H6        -542.2561  -329.5962   636.6868 H6            1 RES     
   22161 H6        -545.2692  -329.8920   636.1659 H6            1 RES     
   22162 H6        -544.4863  -328.8933   637.4490 H6            1 RES     
   22163 H6        -544.2015  -331.9482   637.1972 H6            1 RES     
   22164 H6        -543.2762  -330.8922   638.3246 H6            1 RES     
   22165 H6        -545.3281  -330.0970   639.4293 H6            1 RES     
   22166 H6        -545.1003  -331.8751   639.5481 H6            1 RES     
   22167 H6        -546.7675  -332.2428   637.7348 H6            1 RES     
   22168 H6        -547.0404  -330.4522   637.6172 H6            1 RES     
   22169 H6        -547.4581  -331.3300   639.1298 H6            1 RES     
   22170 H6        -540.2260  -327.9679   633.1614 H6            1 RES     
   22171 H6        -541.9409  -328.2522   632.7336 H6            1 RES     
   22172 H6        -540.6311  -329.2145   631.2277 H6            1 RES     
   22173 H6        -539.7863  -330.6804   631.3239 H6            1 RES     
   22174 H6        -542.8287  -330.6724   631.7237 H6            1 RES     
   22175 H6        -541.5891  -332.7980   632.1315 H6            1 RES     
   22176 H6        -542.8878  -332.9076   630.9012 H6            1 RES     
   22177 H6        -541.2563  -332.9477   629.0428 H6            1 RES     
   22178 H6        -539.9229  -332.6565   630.1817 H6            1 RES     
   22179 H6        -539.8405  -334.9563   629.6304 H6            1 RES     
   22180 H6        -540.4336  -334.8506   631.3042 H6            1 RES     
   22181 H6        -542.7819  -335.2587   630.5037 H6            1 RES     
   22182 H6        -541.6453  -336.5798   630.0867 H6            1 RES     
   22183 H6        -542.6822  -334.4208   628.1276 H6            1 RES     
   22184 H6        -543.1943  -336.1326   628.2363 H6            1 RES     
   22185 H6        -540.8792  -336.8899   627.6333 H6            1 RES     
   22186 H6        -541.6208  -335.8386   626.3700 H6            1 RES     
   22187 H6        -540.3677  -335.1610   627.4543 H6            1 RES     
   22188 H6        -542.8318  -329.3760   629.8350 H6            1 RES     
   22189 H6        -543.1610  -331.0341   629.2490 H6            1 RES     
   22190 H6        -540.6094  -331.0323   628.4999 H6            1 RES     
   22191 H6        -540.5758  -329.3281   628.9701 H6            1 RES     
   22192 H6        -540.8884  -329.6763   626.5636 H6            1 RES     
   22193 H6        -542.3714  -330.6576   626.8350 H6            1 RES     
   22194 H6        -542.0678  -327.6577   627.5614 H6            1 RES     
   22195 H6        -543.5352  -328.6772   627.7980 H6            1 RES     
   22196 H6        -543.7179  -329.0612   625.3435 H6            1 RES     
   22197 H6        -543.8499  -327.3382   625.8485 H6            1 RES     
   22198 H6        -541.3172  -328.6407   624.6582 H6            1 RES     
   22199 H6        -541.4745  -326.9210   625.1682 H6            1 RES     
   22200 H6        -541.6567  -327.2529   622.7106 H6            1 RES     
   22201 H6        -543.0661  -328.3507   622.9264 H6            1 RES     
   22202 H6        -544.3991  -326.4296   623.8634 H6            1 RES     
   22203 H6        -543.7403  -326.0477   622.2413 H6            1 RES     
   22204 H6        -542.9466  -325.3566   623.7060 H6            1 RES     
   22205 C0        -539.4676  -324.2742   644.8180 C0            1 RES     
   22206 C0        -539.3366  -324.8029   646.2467 C0            1 RES     
   22207 C0        -539.6409  -326.1212   646.3170 C0            1 RES     
   22208 S1        -539.4532  -326.7650   647.8506 S1            1 RES     
   22209 C0        -538.9433  -325.2738   648.4975 C0            1 RES     
   22210 C0        -538.8838  -324.3157   647.4711 C0            1 RES     
   22211 C0        -539.8728  -326.6243   645.0071 C0            1 RES     
   22212 C0        -539.7164  -325.6374   644.1539 C0            1 RES     
   22213 C0        -539.6673  -326.1176   642.7855 C0            1 RES     
   22214 C0        -539.8266  -327.4945   642.7463 C0            1 RES     
   22215 S1        -540.0666  -328.2727   644.3566 S1            1 RES     
   22216 H2        -538.4733  -323.3406   647.6248 H2            1 RES     
   22217 H2        -539.3942  -325.5306   641.9256 H2            1 RES     
   22218 N3        -538.2923  -323.3883   651.6929 N3            1 RES     
   22219 C0        -538.6047  -323.6819   650.3984 C0            1 RES     
   22220 C0        -538.5804  -325.0056   649.9150 C0            1 RES     
   22221 C0        -538.2314  -326.0106   650.8323 C0            1 RES     
   22222 N3        -538.1564  -327.3347   650.5321 N3            1 RES     
   22223 S1        -537.6790  -328.0010   651.9683 S1            1 RES     
   22224 N3        -537.5552  -326.7056   652.9854 N3            1 RES     
   22225 C0        -537.9005  -325.6743   652.1723 C0            1 RES     
   22226 C0        -537.9382  -324.3500   652.5886 C0            1 RES     
   22227 H4        -538.9061  -322.8781   649.7502 H4            1 RES     
   22228 C5        -533.9026  -320.1097   651.8261 C5            1 RES     
   22229 C5        -534.0306  -321.1310   650.6948 C5            1 RES     
   22230 C5        -535.4779  -321.3498   650.2191 C5            1 RES     
   22231 C5        -536.1470  -320.0896   649.6357 C5            1 RES     
   22232 C5        -537.5662  -320.4159   649.1394 C5            1 RES     
   22233 C5        -538.3609  -319.1626   648.7461 C5            1 RES     
   22234 C5        -539.8141  -319.4901   648.3276 C5            1 RES     
   22235 C5        -539.9805  -320.0221   646.8701 C5            1 RES     
   22236 C5        -540.5688  -321.4581   646.7121 C5            1 RES     
   22237 C5        -541.9896  -321.5877   647.3345 C5            1 RES     
   22238 C5        -542.3311  -323.0374   647.7267 C5            1 RES     
   22239 C5        -543.4591  -323.0876   648.7794 C5            1 RES     
   22240 C5        -543.5964  -324.5007   649.3743 C5            1 RES     
   22241 C5        -544.4872  -324.5498   650.6287 C5            1 RES     
   22242 C5        -545.9486  -324.2081   650.3600 C5            1 RES     
   22243 C5        -540.4911  -321.8355   645.1968 C5            1 RES     
   22244 C0        -540.6760  -323.2679   644.5628 C0            1 RES     
   22245 C5        -540.9051  -323.0012   643.0119 C5            1 RES     
   22246 C5        -542.3933  -323.1180   642.5408 C5            1 RES     
   22247 C5        -542.8269  -324.5786   642.1863 C5            1 RES     
   22248 C5        -542.2805  -325.1310   640.8487 C5            1 RES     
   22249 C5        -542.5695  -326.6248   640.6139 C5            1 RES     
   22250 C5        -544.0398  -326.9765   640.3170 C5            1 RES     
   22251 C5        -544.6147  -326.3506   639.0279 C5            1 RES     
   22252 C5        -543.8570  -326.7576   637.7599 C5            1 RES     
   22253 C5        -542.7854  -322.0822   641.4349 C5            1 RES     
   22254 C5        -541.8035  -321.8857   640.2510 C5            1 RES     
   22255 C5        -542.3835  -321.0090   639.1180 C5            1 RES     
   22256 C5        -542.7724  -319.5847   639.5576 C5            1 RES     
   22257 C5        -543.3386  -318.7240   638.4102 C5            1 RES     
   22258 C5        -542.2982  -318.3905   637.3233 C5            1 RES     
   22259 C5        -542.8642  -317.5329   636.1772 C5            1 RES     
   22260 C5        -543.3288  -316.1443   636.6186 C5            1 RES     
   22261 H6        -534.2069  -319.0990   651.4866 H6            1 RES     
   22262 H6        -532.8420  -320.0530   652.1517 H6            1 RES     
   22263 H6        -534.5235  -320.4121   652.6960 H6            1 RES     
   22264 H6        -533.3961  -320.8147   649.8398 H6            1 RES     
   22265 H6        -533.6446  -322.1046   651.0703 H6            1 RES     
   22266 H6        -535.4614  -322.1431   649.4406 H6            1 RES     
   22267 H6        -536.0809  -321.7216   651.0768 H6            1 RES     
   22268 H6        -535.5433  -319.6861   648.7937 H6            1 RES     
   22269 H6        -536.2153  -319.3200   650.4330 H6            1 RES     
   22270 H6        -537.5106  -321.1308   648.2908 H6            1 RES     
   22271 H6        -538.1116  -320.8775   649.9858 H6            1 RES     
   22272 H6        -538.4129  -318.5270   649.6580 H6            1 RES     
   22273 H6        -537.8499  -318.5765   647.9523 H6            1 RES     
   22274 H6        -540.2543  -320.1528   649.0998 H6            1 RES     
   22275 H6        -540.3822  -318.5365   648.3711 H6            1 RES     
   22276 H6        -538.9734  -320.0006   646.3962 H6            1 RES     
   22277 H6        -540.6032  -319.3066   646.2904 H6            1 RES     
   22278 H6        -539.9026  -322.0386   647.3101 H6            1 RES     
   22279 H6        -541.9827  -321.0329   648.2884 H6            1 RES     
   22280 H6        -542.7784  -321.1109   646.7134 H6            1 RES     
   22281 H6        -542.5584  -323.6576   646.8340 H6            1 RES     
   22282 H6        -541.4362  -323.4593   648.2304 H6            1 RES     
   22283 H6        -544.4182  -322.7299   648.3473 H6            1 RES     
   22284 H6        -543.1765  -322.4128   649.6179 H6            1 RES     
   22285 H6        -543.9600  -325.2112   648.6021 H6            1 RES     
   22286 H6        -542.5883  -324.8362   649.7067 H6            1 RES     
   22287 H6        -544.0836  -323.8557   651.3995 H6            1 RES     
   22288 H6        -544.4445  -325.5796   651.0453 H6            1 RES     
   22289 H6        -546.3761  -324.9162   649.6198 H6            1 RES     
   22290 H6        -546.0528  -323.1685   649.9883 H6            1 RES     
   22291 H6        -546.5217  -324.2960   651.3081 H6            1 RES     
   22292 H6        -539.4963  -321.5103   644.8187 H6            1 RES     
   22293 H6        -541.2504  -321.1628   644.7339 H6            1 RES     
   22294 H6        -540.5591  -321.9698   642.7898 H6            1 RES     
   22295 H6        -540.2440  -323.5753   642.3481 H6            1 RES     
   22296 H6        -543.0234  -322.8295   643.4134 H6            1 RES     
   22297 H6        -542.5154  -325.2401   643.0235 H6            1 RES     
   22298 H6        -543.9357  -324.6150   642.1267 H6            1 RES     
   22299 H6        -542.6877  -324.5666   639.9920 H6            1 RES     
   22300 H6        -541.1875  -325.0087   640.8369 H6            1 RES     
   22301 H6        -541.9512  -326.9724   639.7598 H6            1 RES     
   22302 H6        -542.2347  -327.1989   641.5013 H6            1 RES     
   22303 H6        -544.6730  -326.6773   641.1778 H6            1 RES     
   22304 H6        -544.1097  -328.0823   640.2187 H6            1 RES     
   22305 H6        -544.6350  -325.2442   639.1035 H6            1 RES     
   22306 H6        -545.6656  -326.6965   638.9219 H6            1 RES     
   22307 H6        -543.8419  -327.8632   637.6531 H6            1 RES     
   22308 H6        -544.3619  -326.3241   636.8708 H6            1 RES     
   22309 H6        -542.8160  -326.3745   637.7724 H6            1 RES     
   22310 H6        -542.8608  -321.0911   641.9304 H6            1 RES     
   22311 H6        -543.8004  -322.3425   641.0630 H6            1 RES     
   22312 H6        -541.5246  -322.8391   639.7801 H6            1 RES     
   22313 H6        -540.8617  -321.4286   640.6153 H6            1 RES     
   22314 H6        -541.6063  -320.9547   638.3281 H6            1 RES     
   22315 H6        -543.2774  -321.5140   638.6897 H6            1 RES     
   22316 H6        -541.8966  -319.0702   640.0090 H6            1 RES     
   22317 H6        -543.5707  -319.6585   640.3253 H6            1 RES     
   22318 H6        -544.2126  -319.2398   637.9550 H6            1 RES     
   22319 H6        -543.6931  -317.7758   638.8649 H6            1 RES     
   22320 H6        -541.9298  -319.3301   636.8642 H6            1 RES     
   22321 H6        -541.4342  -317.8634   637.7837 H6            1 RES     
   22322 H6        -542.0588  -317.3963   635.4227 H6            1 RES     
   22323 H6        -543.7077  -318.0664   635.6879 H6            1 RES     
   22324 H6        -544.1822  -316.2100   637.3231 H6            1 RES     
   22325 H6        -543.6683  -315.5716   635.7296 H6            1 RES     
   22326 H6        -542.4932  -315.5918   637.0976 H6            1 RES     
   22327 C0        -535.9286  -321.7588   656.5364 C0            1 RES     
   22328 C0        -535.7816  -322.6970   657.7348 C0            1 RES     
   22329 C0        -536.4930  -323.8367   657.5619 C0            1 RES     
   22330 S1        -536.3167  -324.9267   658.8199 S1            1 RES     
   22331 C0        -535.2554  -323.8966   659.6652 C0            1 RES     
   22332 C0        -535.0258  -322.7373   658.9048 C0            1 RES     
   22333 C0        -537.0600  -323.8481   656.2577 C0            1 RES     
   22334 C0        -536.7062  -322.7404   655.6459 C0            1 RES     
   22335 C0        -537.0117  -322.7927   654.2283 C0            1 RES     
   22336 C0        -537.6227  -323.9948   653.9056 C0            1 RES     
   22337 S1        -537.8791  -325.1098   655.3011 S1            1 RES     
   22338 H2        -534.2976  -322.0065   659.1854 H2            1 RES     
   22339 H2        -536.6826  -322.0813   653.4906 H2            1 RES     
   22340 N3        -533.5743  -323.2914   662.9814 N3            1 RES     
   22341 C0        -534.1446  -323.0931   661.7588 C0            1 RES     
   22342 C0        -534.6291  -324.1683   660.9869 C0            1 RES     
   22343 C0        -534.5085  -325.4534   661.5413 C0            1 RES     
   22344 N3        -534.9201  -326.5967   660.9311 N3            1 RES     
   22345 S1        -534.4945  -327.7603   662.0265 S1            1 RES     
   22346 N3        -533.8064  -326.9087   663.2632 N3            1 RES     
   22347 C0        -533.9003  -325.6312   662.8127 C0            1 RES     
   22348 C0        -533.4375  -324.5321   663.5243 C0            1 RES     
   22349 H4        -534.2499  -322.0841   661.4013 H4            1 RES     
   22350 C5        -528.3725  -321.5683   662.8843 C5            1 RES     
   22351 C5        -528.9896  -322.1347   661.6045 C5            1 RES     
   22352 C5        -530.4789  -321.7885   661.4295 C5            1 RES     
   22353 C5        -530.7667  -320.2779   661.3227 C5            1 RES     
   22354 C5        -532.2685  -320.0318   661.0968 C5            1 RES     
   22355 C5        -532.6489  -318.5477   661.1965 C5            1 RES     
   22356 C5        -534.1719  -318.3159   661.0515 C5            1 RES     
   22357 C5        -534.7081  -318.3289   659.5861 C5            1 RES     
   22358 C5        -535.7556  -319.4297   659.2338 C5            1 RES     
   22359 C5        -537.0367  -319.3307   660.1123 C5            1 RES     
   22360 C5        -537.7814  -320.6744   660.2215 C5            1 RES     
   22361 C5        -538.7027  -320.7111   661.4597 C5            1 RES     
   22362 C5        -539.2164  -322.1381   661.7234 C5            1 RES     
   22363 C5        -539.8878  -322.2996   663.0991 C5            1 RES     
   22364 C5        -541.1753  -321.4978   663.2539 C5            1 RES     
   22365 C5        -536.0208  -319.3530   657.6948 C5            1 RES     
   22366 C0        -536.7575  -320.4246   656.8022 C0            1 RES     
   22367 C5        -537.1002  -319.6626   655.4492 C5            1 RES     
   22368 C5        -538.5933  -319.2130   655.3115 C5            1 RES     
   22369 C5        -539.5323  -320.3223   654.7327 C5            1 RES     
   22370 C5        -539.3934  -320.5893   653.2154 C5            1 RES     
   22371 C5        -540.1918  -321.8046   652.7095 C5            1 RES     
   22372 C5        -541.7216  -321.6257   652.6777 C5            1 RES     
   22373 C5        -542.2310  -320.5148   651.7341 C5            1 RES     
   22374 C5        -541.8370  -320.7288   650.2689 C5            1 RES     
   22375 C5        -538.7703  -317.8325   654.5957 C5            1 RES     
   22376 C5        -537.9551  -317.5825   653.3005 C5            1 RES     
   22377 C5        -538.3641  -316.2867   652.5643 C5            1 RES     
   22378 C5        -538.1925  -315.0042   653.4003 C5            1 RES     
   22379 C5        -538.5959  -313.7226   652.6436 C5            1 RES     
   22380 C5        -537.6671  -313.3923   651.4590 C5            1 RES     
   22381 C5        -538.0711  -312.1140   650.7027 C5            1 RES     
   22382 C5        -537.9818  -310.8433   651.5492 C5            1 RES     
   22383 H6        -528.3685  -320.4597   662.8678 H6            1 RES     
   22384 H6        -527.3187  -321.9100   662.9666 H6            1 RES     
   22385 H6        -528.9302  -321.9247   663.7764 H6            1 RES     
   22386 H6        -528.4125  -321.7738   660.7268 H6            1 RES     
   22387 H6        -528.9000  -323.2429   661.6454 H6            1 RES     
   22388 H6        -530.8360  -322.2903   660.5041 H6            1 RES     
   22389 H6        -531.0446  -322.2097   662.2898 H6            1 RES     
   22390 H6        -530.1876  -319.8324   660.4845 H6            1 RES     
   22391 H6        -530.4631  -319.7886   662.2720 H6            1 RES     
   22392 H6        -532.5728  -320.4524   660.1146 H6            1 RES     
   22393 H6        -532.8117  -320.5479   661.9125 H6            1 RES     
   22394 H6        -532.3586  -318.2191   662.2192 H6            1 RES     
   22395 H6        -532.0890  -317.9235   660.4674 H6            1 RES     
   22396 H6        -534.6942  -319.0238   661.7263 H6            1 RES     
   22397 H6        -534.3792  -317.2975   661.4433 H6            1 RES     
   22398 H6        -533.8279  -318.4538   658.9160 H6            1 RES     
   22399 H6        -535.1327  -317.3302   659.3452 H6            1 RES     
   22400 H6        -535.2430  -320.3226   659.5138 H6            1 RES     
   22401 H6        -536.7124  -319.1048   661.1426 H6            1 RES     
   22402 H6        -537.7014  -318.4913   659.8138 H6            1 RES     
   22403 H6        -538.3245  -320.9161   659.2835 H6            1 RES     
   22404 H6        -537.0161  -321.4590   660.3979 H6            1 RES     
   22405 H6        -539.5393  -319.9881   661.3505 H6            1 RES     
   22406 H6        -538.0976  -320.4192   662.3468 H6            1 RES     
   22407 H6        -539.8997  -322.4592   660.9089 H6            1 RES     
   22408 H6        -538.3408  -322.8255   661.7323 H6            1 RES     
   22409 H6        -539.1729  -322.0043   663.8994 H6            1 RES     
   22410 H6        -540.1314  -323.3747   663.2430 H6            1 RES     
   22411 H6        -541.9129  -321.8081   662.4846 H6            1 RES     
   22412 H6        -540.9796  -320.4096   663.1686 H6            1 RES     
   22413 H6        -541.6062  -321.6943   664.2593 H6            1 RES     
   22414 H6        -535.0379  -319.2249   657.1890 H6            1 RES     
   22415 H6        -536.5707  -318.3892   657.5852 H6            1 RES     
   22416 H6        -536.4663  -318.7523   655.4020 H6            1 RES     
   22417 H6        -536.7672  -320.1790   654.5383 H6            1 RES     
   22418 H6        -538.9630  -319.0275   656.3462 H6            1 RES     
   22419 H6        -539.3438  -321.2595   655.3000 H6            1 RES     
   22420 H6        -540.5871  -320.0263   654.9177 H6            1 RES     
   22421 H6        -539.7060  -319.7083   652.6286 H6            1 RES     
   22422 H6        -538.3349  -320.7815   652.9866 H6            1 RES     
   22423 H6        -539.8501  -322.0463   651.6812 H6            1 RES     
   22424 H6        -539.9456  -322.6831   653.3394 H6            1 RES     
   22425 H6        -542.0923  -321.4262   653.7045 H6            1 RES     
   22426 H6        -542.1677  -322.5880   652.3423 H6            1 RES     
   22427 H6        -541.8720  -319.5200   652.0686 H6            1 RES     
   22428 H6        -543.3409  -320.5044   651.7898 H6            1 RES     
   22429 H6        -542.2048  -321.7123   649.9064 H6            1 RES     
   22430 H6        -542.2888  -319.9305   649.6429 H6            1 RES     
   22431 H6        -540.7370  -320.6751   650.1358 H6            1 RES     
   22432 H6        -538.4423  -317.0505   655.3129 H6            1 RES     
   22433 H6        -539.8557  -317.6761   654.4118 H6            1 RES     
   22434 H6        -538.0775  -318.3945   652.5697 H6            1 RES     
   22435 H6        -536.8739  -317.5362   653.5397 H6            1 RES     
   22436 H6        -537.7319  -316.2244   651.6547 H6            1 RES     
   22437 H6        -539.4256  -316.3715   652.2426 H6            1 RES     
   22438 H6        -537.1415  -314.9123   653.7502 H6            1 RES     
   22439 H6        -538.8540  -315.0718   654.2891 H6            1 RES     
   22440 H6        -539.6462  -313.8151   652.2895 H6            1 RES     
   22441 H6        -538.5482  -312.8894   653.3750 H6            1 RES     
   22442 H6        -537.6996  -314.2203   650.7223 H6            1 RES     
   22443 H6        -536.6216  -313.2882   651.8230 H6            1 RES     
   22444 H6        -537.3803  -311.9948   649.8395 H6            1 RES     
   22445 H6        -539.1036  -312.2212   650.3053 H6            1 RES     
   22446 H6        -538.7009  -310.8696   652.3925 H6            1 RES     
   22447 H6        -538.2330  -309.9643   650.9185 H6            1 RES     
   22448 H6        -536.9517  -310.7135   651.9431 H6            1 RES     
   22449 C0        -530.1494  -323.8842   667.4109 C0            1 RES     
   22450 C0        -530.1556  -325.1336   668.2923 C0            1 RES     
   22451 C0        -531.2218  -325.9247   668.0228 C0            1 RES     
   22452 S1        -531.2427  -327.3385   668.9185 S1            1 RES     
   22453 C0        -529.7922  -326.9429   669.7196 C0            1 RES     
   22454 C0        -529.2999  -325.7254   669.2193 C0            1 RES     
   22455 C0        -531.9374  -325.3940   666.9143 C0            1 RES     
   22456 C0        -531.3254  -324.3020   666.5146 C0            1 RES     
   22457 C0        -531.8265  -323.8491   665.2303 C0            1 RES     
   22458 C0        -532.8408  -324.6816   664.7819 C0            1 RES     
   22459 S1        -533.2543  -326.0368   665.8993 S1            1 RES     
   22460 H2        -528.3388  -325.3443   669.4914 H2            1 RES     
   22461 H2        -531.3868  -323.0756   664.6245 H2            1 RES     
   22462 N3        -527.5582  -327.8329   672.6190 N3            1 RES     
   22463 C0        -528.1958  -327.1336   671.6373 C0            1 RES     
   22464 C0        -529.1129  -327.7541   670.7652 C0            1 RES     
   22465 C0        -529.3492  -329.1247   670.9623 C0            1 RES     
   22466 N3        -530.1981  -329.8754   670.2108 N3            1 RES     
   22467 S1        -530.0338  -331.3790   670.8793 S1            1 RES     
   22468 N3        -528.9359  -331.1562   672.0930 N3            1 RES     
   22469 C0        -528.6625  -329.8303   671.9864 C0            1 RES     
   22470 C0        -527.7663  -329.1641   672.8119 C0            1 RES     
   22471 H4        -528.0093  -326.0771   671.5585 H4            1 RES     
   22472 C5        -522.1476  -327.6924   671.7578 C5            1 RES     
   22473 C5        -523.0906  -327.6620   670.5540 C5            1 RES     
   22474 C5        -524.3895  -326.8756   670.8048 C5            1 RES     
   22475 C5        -524.1716  -325.3828   671.1213 C5            1 RES     
   22476 C5        -525.5225  -324.6695   671.3035 C5            1 RES     
   22477 C5        -525.3709  -323.2354   671.8301 C5            1 RES     
   22478 C5        -526.7349  -322.5528   672.0901 C5            1 RES     
   22479 C5        -527.4449  -321.9850   670.8218 C5            1 RES     
   22480 C5        -528.8368  -322.5935   670.4674 C5            1 RES     
   22481 C5        -529.8759  -322.3999   671.6101 C5            1 RES     
   22482 C5        -531.0012  -323.4505   671.5674 C5            1 RES     
   22483 C5        -531.6992  -323.5873   672.9375 C5            1 RES     
   22484 C5        -532.6150  -324.8242   672.9693 C5            1 RES     
   22485 C5        -533.1020  -325.1855   674.3841 C5            1 RES     
   22486 C5        -534.0153  -324.1360   675.0078 C5            1 RES     
   22487 C5        -529.2745  -321.9985   669.0894 C5            1 RES     
   22488 C0        -530.4426  -322.5095   668.1607 C0            1 RES     
   22489 C5        -530.6990  -321.3207   667.1361 C5            1 RES     
   22490 C5        -531.9619  -320.4497   667.4472 C5            1 RES     
   22491 C5        -533.2872  -321.0301   666.8521 C5            1 RES     
   22492 C5        -533.4590  -320.8692   665.3233 C5            1 RES     
   22493 C5        -534.6780  -321.6074   664.7408 C5            1 RES     
   22494 C5        -536.0502  -321.0044   665.0972 C5            1 RES     
   22495 C5        -536.2889  -319.5697   664.5788 C5            1 RES     
   22496 C5        -536.1978  -319.4474   663.0541 C5            1 RES     
   22497 C5        -531.7692  -318.9288   667.1324 C5            1 RES     
   22498 C5        -531.1074  -318.5505   665.7821 C5            1 RES     
   22499 C5        -531.1621  -317.0357   665.4804 C5            1 RES     
   22500 C5        -530.4591  -316.1565   666.5321 C5            1 RES     
   22501 C5        -530.5161  -314.6503   666.2065 C5            1 RES     
   22502 C5        -529.7062  -314.2630   664.9540 C5            1 RES     
   22503 C5        -529.7648  -312.7597   664.6281 C5            1 RES     
   22504 C5        -529.1411  -311.8713   665.7055 C5            1 RES     
   22505 H6        -521.7782  -326.6754   672.0001 H6            1 RES     
   22506 H6        -521.2664  -328.3251   671.5184 H6            1 RES     
   22507 H6        -522.6610  -328.1223   672.6440 H6            1 RES     
   22508 H6        -522.5556  -327.2376   669.6780 H6            1 RES     
   22509 H6        -523.3691  -328.7120   670.3136 H6            1 RES     
   22510 H6        -525.0190  -326.9630   669.8927 H6            1 RES     
   22511 H6        -524.9364  -327.3532   671.6476 H6            1 RES     
   22512 H6        -523.6011  -324.8932   670.3021 H6            1 RES     
   22513 H6        -523.5929  -325.2987   672.0652 H6            1 RES     
   22514 H6        -526.0837  -324.6809   670.3447 H6            1 RES     
   22515 H6        -526.0862  -325.2271   672.0768 H6            1 RES     
   22516 H6        -524.8476  -323.3159   672.8088 H6            1 RES     
   22517 H6        -524.7435  -322.6089   671.1601 H6            1 RES     
   22518 H6        -527.3625  -323.2503   672.6807 H6            1 RES     
   22519 H6        -526.5354  -321.6783   672.7453 H6            1 RES     
   22520 H6        -526.7592  -322.1506   669.9605 H6            1 RES     
   22521 H6        -527.5433  -320.8824   670.9228 H6            1 RES     
   22522 H6        -528.6157  -323.6356   670.4082 H6            1 RES     
   22523 H6        -529.3539  -322.5861   672.5643 H6            1 RES     
   22524 H6        -530.2591  -321.3585   671.6735 H6            1 RES     
   22525 H6        -531.7195  -323.2442   670.7460 H6            1 RES     
   22526 H6        -530.5229  -324.4344   671.3785 H6            1 RES     
   22527 H6        -532.2549  -322.6593   673.1915 H6            1 RES     
   22528 H6        -530.9134  -323.7503   673.7084 H6            1 RES     
   22529 H6        -533.4732  -324.6872   672.2778 H6            1 RES     
   22530 H6        -532.0251  -325.7012   672.6200 H6            1 RES     
   22531 H6        -532.2249  -325.3509   675.0490 H6            1 RES     
   22532 H6        -533.6659  -326.1417   674.3241 H6            1 RES     
   22533 H6        -534.9141  -323.9871   674.3739 H6            1 RES     
   22534 H6        -533.4835  -323.1715   675.1372 H6            1 RES     
   22535 H6        -534.3414  -324.4887   676.0100 H6            1 RES     
   22536 H6        -528.3860  -322.0097   668.4194 H6            1 RES     
   22537 H6        -529.4830  -320.9309   669.3346 H6            1 RES     
   22538 H6        -529.8122  -320.6532   667.1612 H6            1 RES     
   22539 H6        -530.6875  -321.6198   666.0788 H6            1 RES     
   22540 H6        -532.1001  -320.4790   668.5525 H6            1 RES     
   22541 H6        -533.3429  -322.1057   667.1274 H6            1 RES     
   22542 H6        -534.1470  -320.5172   667.3338 H6            1 RES     
   22543 H6        -533.5405  -319.8044   665.0444 H6            1 RES     
   22544 H6        -532.5675  -321.2755   664.8235 H6            1 RES     
   22545 H6        -534.5837  -321.6234   663.6347 H6            1 RES     
   22546 H6        -534.6516  -322.6639   665.0760 H6            1 RES     
   22547 H6        -536.1858  -321.0183   666.1984 H6            1 RES     
   22548 H6        -536.8327  -321.6603   664.6556 H6            1 RES     
   22549 H6        -535.5770  -318.8594   665.0466 H6            1 RES     
   22550 H6        -537.3131  -319.2644   664.8839 H6            1 RES     
   22551 H6        -536.9182  -320.1366   662.5644 H6            1 RES     
   22552 H6        -536.4421  -318.4075   662.7502 H6            1 RES     
   22553 H6        -535.1726  -319.6686   662.6930 H6            1 RES     
   22554 H6        -531.1031  -318.5162   667.9195 H6            1 RES     
   22555 H6        -532.7556  -318.4268   667.2395 H6            1 RES     
   22556 H6        -531.5935  -319.0444   664.9287 H6            1 RES     
   22557 H6        -530.0498  -318.8822   665.7756 H6            1 RES     
   22558 H6        -530.6792  -316.8905   664.4922 H6            1 RES     
   22559 H6        -532.2255  -316.7206   665.3955 H6            1 RES     
   22560 H6        -529.3991  -316.4705   666.6477 H6            1 RES     
   22561 H6        -530.9741  -316.2924   667.5060 H6            1 RES     
   22562 H6        -531.5763  -314.3359   666.0866 H6            1 RES     
   22563 H6        -530.0925  -314.1163   667.0822 H6            1 RES     
   22564 H6        -530.1146  -314.7950   664.0711 H6            1 RES     
   22565 H6        -528.6453  -314.5684   665.0870 H6            1 RES     
   22566 H6        -529.2019  -312.5925   663.6839 H6            1 RES     
   22567 H6        -530.8193  -312.4511   664.4598 H6            1 RES     
   22568 H6        -529.7024  -311.9399   666.6589 H6            1 RES     
   22569 H6        -529.1721  -310.8127   665.3708 H6            1 RES     
   22570 H6        -528.0819  -312.1576   665.8764 H6            1 RES     
   22571 C0        -523.9391  -330.6340   675.8988 C0            1 RES     
   22572 C0        -524.2360  -332.0321   676.4421 C0            1 RES     
   22573 C0        -525.5309  -332.3764   676.2427 C0            1 RES     
   22574 S1        -525.8940  -333.9248   676.7643 S1            1 RES     
   22575 C0        -524.2974  -334.2054   677.2878 C0            1 RES     
   22576 C0        -523.5042  -333.0848   676.9880 C0            1 RES     
   22577 C0        -526.1777  -331.3657   675.4792 C0            1 RES     
   22578 C0        -525.3004  -330.4229   675.2183 C0            1 RES     
   22579 C0        -525.7976  -329.4922   674.2222 C0            1 RES     
   22580 C0        -527.0829  -329.8366   673.8321 C0            1 RES     
   22581 S1        -527.7618  -331.2859   674.6657 S1            1 RES     
   22582 H2        -522.4430  -333.0864   677.1178 H2            1 RES     
   22583 H2        -525.2157  -328.7316   673.7308 H2            1 RES     
   22584 N3        -522.1023  -336.4955   679.3192 N3            1 RES     
   22585 C0        -522.6026  -335.3898   678.6976 C0            1 RES     
   22586 C0        -523.7863  -335.4438   677.9343 C0            1 RES     
   22587 C0        -524.4340  -336.6878   677.8539 C0            1 RES     
   22588 N3        -525.5805  -336.9152   677.1589 N3            1 RES     
   22589 S1        -525.8324  -338.5313   677.4031 S1            1 RES     
   22590 N3        -524.5641  -338.9915   678.3558 N3            1 RES     
   22591 C0        -523.8841  -337.8254   678.5031 C0            1 RES     
   22592 C0        -522.7112  -337.7101   679.2376 C0            1 RES     
   22593 H4        -522.0890  -334.4536   678.8278 H4            1 RES     
   22594 C5        -517.1292  -337.6366   677.3185 C5            1 RES     
   22595 C5        -518.1675  -336.9913   676.3994 C5            1 RES     
   22596 C5        -519.0831  -335.9807   677.1129 C5            1 RES     
   22597 C5        -518.3399  -334.7703   677.7119 C5            1 RES     
   22598 C5        -519.3378  -333.7918   678.3551 C5            1 RES     
   22599 C5        -518.6465  -332.6778   679.1540 C5            1 RES     
   22600 C5        -519.6560  -331.7465   679.8666 C5            1 RES     
   22601 C5        -520.3076  -330.6569   678.9594 C5            1 RES     
   22602 C5        -521.8577  -330.7178   678.7957 C5            1 RES     
   22603 C5        -522.6025  -330.5831   680.1559 C5            1 RES     
   22604 C5        -524.0069  -331.2144   680.1235 C5            1 RES     
   22605 C5        -524.5114  -331.5441   681.5448 C5            1 RES     
   22606 C5        -525.7718  -332.4263   681.4924 C5            1 RES     
   22607 C5        -526.1476  -333.0336   682.8559 C5            1 RES     
   22608 C5        -526.5637  -332.0001   683.8967 C5            1 RES     
   22609 C5        -522.2617  -329.6477   677.7298 C5            1 RES     
   22610 C0        -523.6512  -329.5145   676.9952 C0            1 RES     
   22611 C5        -523.6395  -328.0561   676.3614 C5            1 RES     
   22612 C5        -524.4849  -326.9959   677.1436 C5            1 RES     
   22613 C5        -525.9972  -326.9797   676.7437 C5            1 RES     
   22614 C5        -526.3184  -326.3369   675.3739 C5            1 RES     
   22615 C5        -527.7822  -326.4983   674.9251 C5            1 RES     
   22616 C5        -528.8122  -325.6656   675.7121 C5            1 RES     
   22617 C5        -528.6314  -324.1356   675.6106 C5            1 RES     
   22618 C5        -528.7195  -323.6032   674.1765 C5            1 RES     
   22619 C5        -523.8445  -325.5680   677.1576 C5            1 RES     
   22620 C5        -523.2909  -325.0133   675.8196 C5            1 RES     
   22621 C5        -522.8814  -323.5252   675.9004 C5            1 RES     
   22622 C5        -521.7864  -323.2270   676.9421 C5            1 RES     
   22623 C5        -521.3853  -321.7391   676.9988 C5            1 RES     
   22624 C5        -520.6769  -321.2464   675.7220 C5            1 RES     
   22625 C5        -520.2783  -319.7606   675.7781 C5            1 RES     
   22626 C5        -519.2505  -319.4393   676.8642 C5            1 RES     
   22627 H6        -516.4131  -336.8819   677.7021 H6            1 RES     
   22628 H6        -516.5507  -338.3925   676.7459 H6            1 RES     
   22629 H6        -517.6265  -338.1444   678.1720 H6            1 RES     
   22630 H6        -517.6504  -336.4975   675.5494 H6            1 RES     
   22631 H6        -518.8096  -337.8023   675.9895 H6            1 RES     
   22632 H6        -519.8271  -335.6167   676.3716 H6            1 RES     
   22633 H6        -519.6336  -336.5101   677.9218 H6            1 RES     
   22634 H6        -517.7601  -334.2436   676.9228 H6            1 RES     
   22635 H6        -517.6399  -335.1324   678.4939 H6            1 RES     
   22636 H6        -519.9996  -333.3638   677.5720 H6            1 RES     
   22637 H6        -519.9403  -334.3693   679.0833 H6            1 RES     
   22638 H6        -518.0479  -333.1849   679.9431 H6            1 RES     
   22639 H6        -517.9474  -332.0856   678.5252 H6            1 RES     
   22640 H6        -520.3901  -332.3804   680.4038 H6            1 RES     
   22641 H6        -519.0877  -331.1952   680.6457 H6            1 RES     
   22642 H6        -519.8437  -330.7489   677.9516 H6            1 RES     
   22643 H6        -520.0193  -329.6510   679.3346 H6            1 RES     
   22644 H6        -522.0056  -331.7152   678.4465 H6            1 RES     
   22645 H6        -522.0436  -331.1793   680.8974 H6            1 RES     
   22646 H6        -522.6055  -329.5421   680.5454 H6            1 RES     
   22647 H6        -524.7237  -330.5834   679.5566 H6            1 RES     
   22648 H6        -523.9138  -332.1928   679.6074 H6            1 RES     
   22649 H6        -524.6861  -330.6140   682.1270 H6            1 RES     
   22650 H6        -523.7244  -332.1396   682.0590 H6            1 RES     
   22651 H6        -526.6238  -331.8575   681.0636 H6            1 RES     
   22652 H6        -525.5615  -333.2915   680.8242 H6            1 RES     
   22653 H6        -525.2911  -333.6260   683.2487 H6            1 RES     
   22654 H6        -526.9994  -333.7314   682.7028 H6            1 RES     
   22655 H6        -527.4417  -331.4258   683.5344 H6            1 RES     
   22656 H6        -525.7294  -331.3060   684.1246 H6            1 RES     
   22657 H6        -526.8446  -332.5240   684.8357 H6            1 RES     
   22658 H6        -521.5306  -329.7118   676.8933 H6            1 RES     
   22659 H6        -522.0675  -328.6851   678.2581 H6            1 RES     
   22660 H6        -522.5871  -327.7028   676.3413 H6            1 RES     
   22661 H6        -523.8762  -328.0233   675.2889 H6            1 RES     
   22662 H6        -524.4685  -327.3073   678.2134 H6            1 RES     
   22663 H6        -526.3675  -328.0275   676.7654 H6            1 RES     
   22664 H6        -526.5614  -326.4100   677.5128 H6            1 RES     
   22665 H6        -526.0801  -325.2592   675.3771 H6            1 RES     
   22666 H6        -525.6917  -326.8127   674.6054 H6            1 RES     
   22667 H6        -527.8546  -326.2158   673.8538 H6            1 RES     
   22668 H6        -528.0612  -327.5694   674.9894 H6            1 RES     
   22669 H6        -528.7888  -325.9625   676.7811 H6            1 RES     
   22670 H6        -529.8217  -325.9158   675.3175 H6            1 RES     
   22671 H6        -527.6659  -323.8235   676.0587 H6            1 RES     
   22672 H6        -529.4426  -323.6579   676.2013 H6            1 RES     
   22673 H6        -529.6890  -323.8873   673.7146 H6            1 RES     
   22674 H6        -528.6449  -322.4952   674.1870 H6            1 RES     
   22675 H6        -527.8873  -323.9880   673.5523 H6            1 RES     
   22676 H6        -522.9758  -325.6085   677.8485 H6            1 RES     
   22677 H6        -524.5830  -324.8632   677.5983 H6            1 RES     
   22678 H6        -524.0279  -325.0782   675.0066 H6            1 RES     
   22679 H6        -522.4153  -325.6119   675.4978 H6            1 RES     
   22680 H6        -522.5213  -323.2390   674.8908 H6            1 RES     
   22681 H6        -523.7807  -322.9133   676.1332 H6            1 RES     
   22682 H6        -520.8856  -323.8459   676.7394 H6            1 RES     
   22683 H6        -522.1753  -323.4914   677.9476 H6            1 RES     
   22684 H6        -522.2868  -321.1185   677.1976 H6            1 RES     
   22685 H6        -520.6902  -321.6264   677.8564 H6            1 RES     
   22686 H6        -521.3582  -321.3594   674.8547 H6            1 RES     
   22687 H6        -519.7699  -321.8627   675.5376 H6            1 RES     
   22688 H6        -519.8301  -319.4897   674.7972 H6            1 RES     
   22689 H6        -521.1832  -319.1328   675.9285 H6            1 RES     
   22690 H6        -519.6632  -319.6231   677.8765 H6            1 RES     
   22691 H6        -518.9751  -318.3651   676.8018 H6            1 RES     
   22692 H6        -518.3335  -320.0488   676.7204 H6            1 RES     
   22693 C0        -519.1960  -341.0330   680.9521 C0            1 RES     
   22694 C0        -519.8608  -342.3863   681.2064 C0            1 RES     
   22695 C0        -521.2110  -342.2785   681.2290 C0            1 RES     
   22696 S1        -521.9906  -343.7442   681.4426 S1            1 RES     
   22697 C0        -520.5209  -344.6028   681.5125 C0            1 RES     
   22698 C0        -519.4511  -343.7139   681.3119 C0            1 RES     
   22699 C0        -521.5860  -340.9495   680.8886 C0            1 RES     
   22700 C0        -520.4913  -340.2582   680.6644 C0            1 RES     
   22701 C0        -520.7859  -338.9762   680.0515 C0            1 RES     
   22702 C0        -522.1538  -338.8154   679.8916 C0            1 RES     
   22703 S1        -523.1513  -340.1930   680.4945 S1            1 RES     
   22704 H2        -518.4434  -344.0518   681.1954 H2            1 RES     
   22705 H2        -520.0595  -338.3009   679.6332 H2            1 RES     
   22706 N3        -518.9485  -347.9076   682.4046 N3            1 RES     
   22707 C0        -519.1354  -346.5744   682.1876 C0            1 RES     
   22708 C0        -520.3645  -346.0676   681.7197 C0            1 RES     
   22709 C0        -521.3928  -346.9988   681.4989 C0            1 RES     
   22710 N3        -522.6352  -346.6810   681.0468 N3            1 RES     
   22711 S1        -523.3724  -348.1586   680.9571 S1            1 RES     
   22712 N3        -522.2085  -349.2146   681.4650 N3            1 RES     
   22713 C0        -521.1664  -348.3832   681.7235 C0            1 RES     
   22714 C0        -519.9310  -348.8226   682.1810 C0            1 RES     
   22715 H4        -518.3273  -345.9013   682.4137 H4            1 RES     
   22716 C5        -514.9686  -349.7634   679.1255 C5            1 RES     
   22717 C5        -515.8519  -348.6127   678.6407 C5            1 RES     
   22718 C5        -516.2705  -347.6404   679.7579 C5            1 RES     
   22719 C5        -515.0916  -346.9185   680.4397 C5            1 RES     
   22720 C5        -515.6075  -345.9317   681.5014 C5            1 RES     
   22721 C5        -514.4809  -345.3418   682.3616 C5            1 RES     
   22722 C5        -515.0136  -344.4153   683.4805 C5            1 RES     
   22723 C5        -515.3870  -342.9707   683.0237 C5            1 RES     
   22724 C5        -516.8761  -342.5426   683.2038 C5            1 RES     
   22725 C5        -517.3355  -342.6081   684.6896 C5            1 RES     
   22726 C5        -518.8596  -342.7807   684.8279 C5            1 RES     
   22727 C5        -519.2403  -343.3561   686.2090 C5            1 RES     
   22728 C5        -520.7163  -343.7926   686.2372 C5            1 RES     
   22729 C5        -521.0773  -344.6410   687.4698 C5            1 RES     
   22730 C5        -520.9765  -343.8840   688.7894 C5            1 RES     
   22731 C5        -517.0473  -341.1391   682.5365 C5            1 RES     
   22732 C0        -518.4022  -340.4117   682.1857 C0            1 RES     
   22733 C5        -517.9962  -338.8966   681.9242 C5            1 RES     
   22734 C5        -518.3232  -337.9188   683.1021 C5            1 RES     
   22735 C5        -519.7846  -337.3617   683.0683 C5            1 RES     
   22736 C5        -520.0630  -336.2831   681.9951 C5            1 RES     
   22737 C5        -521.5449  -335.8876   681.8627 C5            1 RES     
   22738 C5        -522.1190  -335.0673   683.0336 C5            1 RES     
   22739 C5        -521.4568  -333.6901   683.2542 C5            1 RES     
   22740 C5        -521.5634  -332.7591   682.0419 C5            1 RES     
   22741 C5        -517.2499  -336.7980   683.3046 C5            1 RES     
   22742 C5        -516.7370  -336.0551   682.0439 C5            1 RES     
   22743 C5        -515.8498  -334.8338   682.3756 C5            1 RES     
   22744 C5        -514.5833  -335.1741   683.1839 C5            1 RES     
   22745 C5        -513.7074  -333.9436   683.4947 C5            1 RES     
   22746 C5        -513.0620  -333.3189   682.2425 C5            1 RES     
   22747 C5        -512.1892  -332.0894   682.5527 C5            1 RES     
   22748 C5        -510.9715  -332.4026   683.4236 C5            1 RES     
   22749 H6        -513.9963  -349.3872   679.5032 H6            1 RES     
   22750 H6        -514.7602  -350.4494   678.2769 H6            1 RES     
   22751 H6        -515.4814  -350.3374   679.9262 H6            1 RES     
   22752 H6        -515.3248  -348.0581   677.8355 H6            1 RES     
   22753 H6        -516.7775  -349.0535   678.2082 H6            1 RES     
   22754 H6        -516.9477  -346.8816   679.3092 H6            1 RES     
   22755 H6        -516.8464  -348.2062   680.5233 H6            1 RES     
   22756 H6        -514.4865  -346.3691   679.6857 H6            1 RES     
   22757 H6        -514.4491  -347.6751   680.9372 H6            1 RES     
   22758 H6        -516.1926  -345.1254   681.0097 H6            1 RES     
   22759 H6        -516.2591  -346.5032   682.1911 H6            1 RES     
   22760 H6        -513.9802  -346.2045   682.8546 H6            1 RES     
   22761 H6        -513.7203  -344.8132   681.7476 H6            1 RES     
   22762 H6        -515.8335  -344.9454   684.0059 H6            1 RES     
   22763 H6        -514.1912  -344.2991   684.2182 H6            1 RES     
   22764 H6        -515.1261  -342.8904   681.9444 H6            1 RES     
   22765 H6        -514.7316  -342.2423   683.5486 H6            1 RES     
   22766 H6        -517.3941  -343.3104   682.6739 H6            1 RES     
   22767 H6        -516.9080  -343.5271   685.1258 H6            1 RES     
   22768 H6        -516.9381  -341.7698   685.3018 H6            1 RES     
   22769 H6        -519.3984  -341.8366   684.6005 H6            1 RES     
   22770 H6        -519.1699  -343.5501   684.0902 H6            1 RES     
   22771 H6        -519.0131  -342.6273   687.0162 H6            1 RES     
   22772 H6        -518.6318  -344.2721   686.3789 H6            1 RES     
   22773 H6        -521.3823  -342.9077   686.1564 H6            1 RES     
   22774 H6        -520.9010  -344.4470   685.3558 H6            1 RES     
   22775 H6        -520.4197  -345.5382   687.5100 H6            1 RES     
   22776 H6        -522.1249  -344.9944   687.3539 H6            1 RES     
   22777 H6        -521.6556  -343.0062   688.7786 H6            1 RES     
   22778 H6        -519.9359  -343.5509   688.9791 H6            1 RES     
   22779 H6        -521.2807  -344.5586   689.6185 H6            1 RES     
   22780 H6        -516.5038  -341.1585   681.5656 H6            1 RES     
   22781 H6        -516.4726  -340.4685   683.2172 H6            1 RES     
   22782 H6        -516.9000  -338.8637   681.7506 H6            1 RES     
   22783 H6        -518.3564  -338.4862   680.9707 H6            1 RES     
   22784 H6        -518.2613  -338.5211   684.0376 H6            1 RES     
   22785 H6        -520.4748  -338.2216   682.9276 H6            1 RES     
   22786 H6        -520.0141  -336.9075   684.0560 H6            1 RES     
   22787 H6        -519.4826  -335.3660   682.1962 H6            1 RES     
   22788 H6        -519.7440  -336.6693   681.0159 H6            1 RES     
   22789 H6        -521.6689  -335.2956   680.9317 H6            1 RES     
   22790 H6        -522.1517  -336.8069   681.7362 H6            1 RES     
   22791 H6        -522.0459  -335.6580   683.9701 H6            1 RES     
   22792 H6        -523.1991  -334.8966   682.8293 H6            1 RES     
   22793 H6        -520.3898  -333.8074   683.5334 H6            1 RES     
   22794 H6        -521.9722  -333.1982   684.1072 H6            1 RES     
   22795 H6        -522.6268  -332.6109   681.7570 H6            1 RES     
   22796 H6        -521.1246  -331.7705   682.2937 H6            1 RES     
   22797 H6        -521.0022  -333.1621   681.1741 H6            1 RES     
   22798 H6        -516.3561  -337.2814   683.7529 H6            1 RES     
   22799 H6        -517.6431  -336.0751   684.0525 H6            1 RES     
   22800 H6        -517.5600  -335.6692   681.4257 H6            1 RES     
   22801 H6        -516.1640  -336.7542   681.4024 H6            1 RES     
   22802 H6        -515.5604  -334.3781   681.4063 H6            1 RES     
   22803 H6        -516.4530  -334.0898   682.9412 H6            1 RES     
   22804 H6        -513.9768  -335.9337   682.6447 H6            1 RES     
   22805 H6        -514.8929  -335.6006   684.1608 H6            1 RES     
   22806 H6        -514.3144  -333.1811   684.0307 H6            1 RES     
   22807 H6        -512.9013  -334.2870   684.1756 H6            1 RES     
   22808 H6        -513.8567  -332.9767   681.5491 H6            1 RES     
   22809 H6        -512.4464  -334.0832   681.7198 H6            1 RES     
   22810 H6        -511.8187  -331.6808   681.5872 H6            1 RES     
   22811 H6        -512.8038  -331.3052   683.0455 H6            1 RES     
   22812 H6        -511.2756  -332.7508   684.4311 H6            1 RES     
   22813 H6        -510.3668  -331.4800   683.5534 H6            1 RES     
   22814 H6        -510.3386  -333.1754   682.9386 H6            1 RES     
   22815 C0        -517.5145  -353.3497   682.2348 C0            1 RES     
   22816 C0        -518.5481  -354.4739   682.3090 C0            1 RES     
   22817 C0        -519.7687  -354.0023   682.6597 C0            1 RES     
   22818 S1        -520.9524  -355.1853   682.6950 S1            1 RES     
   22819 C0        -519.8566  -356.4037   682.2295 C0            1 RES     
   22820 C0        -518.5917  -355.8334   682.0065 C0            1 RES     
   22821 C0        -519.7251  -352.5827   682.7326 C0            1 RES     
   22822 C0        -518.5059  -352.1931   682.4354 C0            1 RES     
   22823 C0        -518.4411  -350.7593   682.2214 C0            1 RES     
   22824 C0        -519.6863  -350.1808   682.4159 C0            1 RES     
   22825 S1        -520.9895  -351.3359   682.8891 S1            1 RES     
   22826 H2        -517.7803  -356.3915   681.5903 H2            1 RES     
   22827 H2        -517.5981  -350.2239   681.8199 H2            1 RES     
   22828 N3        -519.3616  -360.1273   681.9474 N3            1 RES     
   22829 C0        -519.1238  -358.7928   682.0956 C0            1 RES     
   22830 C0        -520.1678  -357.8470   682.0482 C0            1 RES     
   22831 C0        -521.4671  -358.3444   681.8536 C0            1 RES     
   22832 N3        -522.5840  -357.5722   681.7800 N3            1 RES     
   22833 S1        -523.7746  -358.6891   681.5161 S1            1 RES     
   22834 N3        -522.9681  -360.1301   681.4877 N3            1 RES     
   22835 C0        -521.6839  -359.7390   681.6916 C0            1 RES     
   22836 C0        -520.6132  -360.6218   681.7435 C0            1 RES     
   22837 H4        -518.1150  -358.4710   682.2846 H4            1 RES     
   22838 C5        -516.7247  -361.9829   677.5157 C5            1 RES     
   22839 C5        -517.2347  -360.5410   677.5249 C5            1 RES     
   22840 C5        -517.1459  -359.8616   678.9030 C5            1 RES     
   22841 C5        -515.7109  -359.7328   679.4509 C5            1 RES     
   22842 C5        -515.7158  -358.9966   680.8019 C5            1 RES     
   22843 C5        -514.3485  -359.0259   681.4995 C5            1 RES     
   22844 C5        -514.3810  -358.3569   682.8943 C5            1 RES     
   22845 C5        -514.3139  -356.7979   682.8837 C5            1 RES     
   22846 C5        -515.5357  -356.0406   683.4894 C5            1 RES     
   22847 C5        -515.7776  -356.4061   684.9830 C5            1 RES     
   22848 C5        -517.2373  -356.1757   685.4170 C5            1 RES     
   22849 C5        -517.5898  -356.9986   686.6746 C5            1 RES     
   22850 C5        -519.1075  -356.9909   686.9319 C5            1 RES     
   22851 C5        -519.5530  -358.0255   687.9810 C5            1 RES     
   22852 C5        -519.0227  -357.7481   689.3832 C5            1 RES     
   22853 C5        -515.3231  -354.5145   683.2246 C5            1 RES     
   22854 C0        -516.3948  -353.3660   683.3679 C0            1 RES     
   22855 C5        -515.5498  -352.0189   683.3829 C5            1 RES     
   22856 C5        -515.3652  -351.3780   684.7992 C5            1 RES     
   22857 C5        -516.5483  -350.4480   685.2265 C5            1 RES     
   22858 C5        -516.6005  -349.0699   684.5260 C5            1 RES     
   22859 C5        -517.8702  -348.2530   684.8269 C5            1 RES     
   22860 C5        -517.9693  -347.6845   686.2554 C5            1 RES     
   22861 C5        -516.8635  -346.6766   686.6365 C5            1 RES     
   22862 C5        -516.8239  -345.4409   685.7313 C5            1 RES     
   22863 C5        -513.9636  -350.7147   685.0107 C5            1 RES     
   22864 C5        -513.4153  -349.8111   683.8761 C5            1 RES     
   22865 C5        -512.1359  -349.0414   684.2753 C5            1 RES     
   22866 C5        -510.9540  -349.9451   684.6751 C5            1 RES     
   22867 C5        -509.6850  -349.1577   685.0591 C5            1 RES     
   22868 C5        -509.0512  -348.4018   683.8752 C5            1 RES     
   22869 C5        -507.7854  -347.6144   684.2592 C5            1 RES     
   22870 C5        -506.6314  -348.4978   684.7355 C5            1 RES     
   22871 H6        -515.6399  -362.0231   677.7419 H6            1 RES     
   22872 H6        -516.8769  -362.4202   676.5059 H6            1 RES     
   22873 H6        -517.2813  -362.5977   678.2546 H6            1 RES     
   22874 H6        -516.6718  -359.9468   676.7741 H6            1 RES     
   22875 H6        -518.3050  -360.5570   677.2214 H6            1 RES     
   22876 H6        -517.5886  -358.8464   678.8084 H6            1 RES     
   22877 H6        -517.7635  -360.4407   679.6246 H6            1 RES     
   22878 H6        -515.0698  -359.1803   678.7298 H6            1 RES     
   22879 H6        -515.2929  -360.7506   679.6001 H6            1 RES     
   22880 H6        -516.0629  -357.9512   680.6569 H6            1 RES     
   22881 H6        -516.4166  -359.5375   681.4676 H6            1 RES     
   22882 H6        -514.0986  -360.0995   681.6516 H6            1 RES     
   22883 H6        -513.5496  -358.5770   680.8709 H6            1 RES     
   22884 H6        -515.2481  -358.7645   683.4521 H6            1 RES     
   22885 H6        -513.4719  -358.6978   683.4339 H6            1 RES     
   22886 H6        -514.1952  -356.4820   681.8228 H6            1 RES     
   22887 H6        -513.3871  -356.4701   683.4026 H6            1 RES     
   22888 H6        -516.3480  -356.4416   682.9256 H6            1 RES     
   22889 H6        -515.6227  -357.4939   685.0847 H6            1 RES     
   22890 H6        -515.0429  -355.9308   685.6684 H6            1 RES     
   22891 H6        -517.4584  -355.0948   685.5437 H6            1 RES     
   22892 H6        -517.8855  -356.5758   684.6094 H6            1 RES     
   22893 H6        -517.0227  -356.6327   687.5572 H6            1 RES     
   22894 H6        -517.3023  -358.0567   686.4844 H6            1 RES     
   22895 H6        -519.4465  -355.9711   687.2122 H6            1 RES     
   22896 H6        -519.6206  -357.2790   685.9869 H6            1 RES     
   22897 H6        -519.2318  -359.0420   687.6613 H6            1 RES     
   22898 H6        -520.6638  -358.0199   688.0247 H6            1 RES     
   22899 H6        -519.3664  -356.7516   689.7310 H6            1 RES     
   22900 H6        -517.9148  -357.7918   689.4060 H6            1 RES     
   22901 H6        -519.4141  -358.5217   690.0784 H6            1 RES     
   22902 H6        -514.9587  -354.4009   682.1793 H6            1 RES     
   22903 H6        -514.4690  -354.2624   683.8957 H6            1 RES     
   22904 H6        -514.5407  -352.2463   682.9795 H6            1 RES     
   22905 H6        -515.8834  -351.2635   682.6581 H6            1 RES     
   22906 H6        -515.3762  -352.2196   685.5295 H6            1 RES     
   22907 H6        -517.4973  -350.9987   685.0480 H6            1 RES     
   22908 H6        -516.4731  -350.2574   686.3185 H6            1 RES     
   22909 H6        -515.7265  -348.4538   684.7996 H6            1 RES     
   22910 H6        -516.5684  -349.2260   683.4378 H6            1 RES     
   22911 H6        -517.9199  -347.4046   684.1125 H6            1 RES     
   22912 H6        -518.7590  -348.8855   684.6293 H6            1 RES     
   22913 H6        -517.9658  -348.5189   686.9868 H6            1 RES     
   22914 H6        -518.9488  -347.1650   686.3453 H6            1 RES     
   22915 H6        -515.8679  -347.1655   686.6329 H6            1 RES     
   22916 H6        -517.0614  -346.3317   687.6743 H6            1 RES     
   22917 H6        -517.8067  -344.9231   685.7359 H6            1 RES     
   22918 H6        -516.0512  -344.7345   686.1015 H6            1 RES     
   22919 H6        -516.5559  -345.7131   684.6899 H6            1 RES     
   22920 H6        -513.2275  -351.5391   685.1205 H6            1 RES     
   22921 H6        -513.9856  -350.1623   685.9755 H6            1 RES     
   22922 H6        -514.1417  -349.0461   683.5669 H6            1 RES     
   22923 H6        -513.2028  -350.4234   682.9770 H6            1 RES     
   22924 H6        -511.8506  -348.4227   683.3997 H6            1 RES     
   22925 H6        -512.3723  -348.3574   685.1200 H6            1 RES     
   22926 H6        -510.7160  -350.6520   683.8511 H6            1 RES     
   22927 H6        -511.2474  -350.5337   685.5693 H6            1 RES     
   22928 H6        -509.9230  -348.4470   685.8810 H6            1 RES     
   22929 H6        -508.9515  -349.8975   685.4414 H6            1 RES     
   22930 H6        -509.7761  -347.6628   683.4783 H6            1 RES     
   22931 H6        -508.8039  -349.1205   683.0636 H6            1 RES     
   22932 H6        -507.4396  -347.0626   683.3579 H6            1 RES     
   22933 H6        -508.0294  -346.8690   685.0469 H6            1 RES     
   22934 H6        -506.8893  -349.0254   685.6757 H6            1 RES     
   22935 H6        -505.7429  -347.8627   684.9375 H6            1 RES     
   22936 H6        -506.3654  -349.2402   683.9537 H6            1 RES     
   22937 C0        -519.8539  -365.4546   680.1927 C0            1 RES     
   22938 C0        -521.1809  -366.2132   680.2331 C0            1 RES     
   22939 C0        -522.1137  -365.5416   680.9500 C0            1 RES     
   22940 S1        -523.6056  -366.3002   680.9738 S1            1 RES     
   22941 C0        -523.0531  -367.5857   680.0020 C0            1 RES     
   22942 C0        -521.7152  -367.3549   679.6393 C0            1 RES     
   22943 C0        -521.5917  -364.2777   681.3406 C0            1 RES     
   22944 C0        -520.3667  -364.1774   680.8759 C0            1 RES     
   22945 C0        -519.8604  -362.8226   680.9938 C0            1 RES     
   22946 C0        -520.8027  -362.0008   681.5933 C0            1 RES     
   22947 S1        -522.3354  -362.8284   682.0648 S1            1 RES     
   22948 H2        -521.2018  -367.9713   678.9325 H2            1 RES     
   22949 H2        -518.9526  -362.4529   680.5491 H2            1 RES     
   22950 N3        -523.8667  -371.0454   678.7540 N3            1 RES     
   22951 C0        -523.1813  -369.9360   679.1523 C0            1 RES     
   22952 C0        -523.8479  -368.7642   679.5635 C0            1 RES     
   22953 C0        -525.2522  -368.7965   679.5560 C0            1 RES     
   22954 N3        -526.0481  -367.7551   679.9183 N3            1 RES     
   22955 S1        -527.5665  -368.3639   679.6761 S1            1 RES     
   22956 N3        -527.2964  -369.8994   679.1310 N3            1 RES     
   22957 C0        -525.9400  -369.9627   679.1259 C0            1 RES     
   22958 C0        -525.2270  -371.0858   678.7276 C0            1 RES     
   22959 H4        -522.1068  -369.9809   679.1790 H4            1 RES     
   22960 C5        -522.6441  -372.1861   673.5348 C5            1 RES     
   22961 C5        -522.6401  -370.7275   673.9951 C5            1 RES     
   22962 C5        -522.1385  -370.5349   675.4372 C5            1 RES     
   22963 C5        -520.6803  -370.9810   675.6624 C5            1 RES     
   22964 C5        -520.2512  -370.7021   677.1133 C5            1 RES     
   22965 C5        -518.8876  -371.3175   677.4583 C5            1 RES     
   22966 C5        -518.5003  -371.1050   678.9412 C5            1 RES     
   22967 C5        -517.9218  -369.6960   679.2802 C5            1 RES     
   22968 C5        -518.7252  -368.8375   680.3052 C5            1 RES     
   22969 C5        -518.8628  -369.5406   681.6872 C5            1 RES     
   22970 C5        -520.0871  -369.0466   682.4802 C5            1 RES     
   22971 C5        -520.5127  -370.0676   683.5570 C5            1 RES     
   22972 C5        -521.8899  -369.7090   684.1441 C5            1 RES     
   22973 C5        -522.5017  -370.8363   684.9951 C5            1 RES     
   22974 C5        -521.7184  -371.1423   686.2669 C5            1 RES     
   22975 C5        -518.0575  -367.4250   680.3633 C5            1 RES     
   22976 C0        -518.6559  -366.1160   681.0085 C0            1 RES     
   22977 C5        -517.4185  -365.1268   681.1470 C5            1 RES     
   22978 C5        -516.8351  -365.0074   682.5946 C5            1 RES     
   22979 C5        -517.5701  -363.9498   683.4826 C5            1 RES     
   22980 C5        -517.2596  -362.4706   683.1536 C5            1 RES     
   22981 C5        -518.1307  -361.4550   683.9150 C5            1 RES     
   22982 C5        -517.8342  -361.3256   685.4213 C5            1 RES     
   22983 C5        -516.4147  -360.8269   685.7681 C5            1 RES     
   22984 C5        -516.0946  -359.4438   685.1916 C5            1 RES     
   22985 C5        -515.2778  -364.8572   682.6339 C5            1 RES     
   22986 C5        -514.6254  -363.8535   681.6483 C5            1 RES     
   22987 C5        -513.1205  -363.6266   681.9174 C5            1 RES     
   22988 C5        -512.2620  -364.9019   681.8182 C5            1 RES     
   22989 C5        -510.7630  -364.6515   682.0796 C5            1 RES     
   22990 C5        -510.0868  -363.7924   680.9934 C5            1 RES     
   22991 C5        -508.5909  -363.5410   681.2554 C5            1 RES     
   22992 C5        -507.7408  -364.8123   681.2396 C5            1 RES     
   22993 H6        -521.6138  -372.5940   673.4949 H6            1 RES     
   22994 H6        -523.0728  -372.2474   672.5118 H6            1 RES     
   22995 H6        -523.2638  -372.8076   674.2154 H6            1 RES     
   22996 H6        -522.0230  -370.1230   673.2969 H6            1 RES     
   22997 H6        -523.6864  -370.3524   673.9453 H6            1 RES     
   22998 H6        -522.2278  -369.4548   675.6846 H6            1 RES     
   22999 H6        -522.8057  -371.1016   676.1237 H6            1 RES     
   23000 H6        -520.0000  -370.4452   674.9649 H6            1 RES     
   23001 H6        -520.6073  -372.0723   675.4716 H6            1 RES     
   23002 H6        -520.2483  -369.6066   677.2985 H6            1 RES     
   23003 H6        -520.9911  -371.1942   677.7745 H6            1 RES     
   23004 H6        -518.9895  -372.4135   677.2952 H6            1 RES     
   23005 H6        -518.0815  -370.9479   676.7886 H6            1 RES     
   23006 H6        -519.3662  -371.3970   679.5690 H6            1 RES     
   23007 H6        -517.6898  -371.8301   679.1672 H6            1 RES     
   23008 H6        -517.8549  -369.1302   678.3237 H6            1 RES     
   23009 H6        -516.8757  -369.8088   679.6388 H6            1 RES     
   23010 H6        -519.6951  -368.8106   679.8612 H6            1 RES     
   23011 H6        -519.0651  -370.6081   681.4944 H6            1 RES     
   23012 H6        -517.9236  -369.5134   682.2810 H6            1 RES     
   23013 H6        -519.9168  -368.0336   682.9023 H6            1 RES     
   23014 H6        -520.9378  -368.9936   681.7689 H6            1 RES     
   23015 H6        -519.7385  -370.1509   684.3496 H6            1 RES     
   23016 H6        -520.6224  -371.0598   683.0652 H6            1 RES     
   23017 H6        -521.8283  -368.7637   684.7237 H6            1 RES     
   23018 H6        -522.5966  -369.5516   683.2985 H6            1 RES     
   23019 H6        -522.5843  -371.7622   684.3830 H6            1 RES     
   23020 H6        -523.5300  -370.5317   685.2881 H6            1 RES     
   23021 H6        -521.6596  -370.2367   686.9059 H6            1 RES     
   23022 H6        -520.6962  -371.5004   686.0286 H6            1 RES     
   23023 H6        -522.2428  -371.9427   686.8319 H6            1 RES     
   23024 H6        -517.8264  -367.1178   679.3190 H6            1 RES     
   23025 H6        -517.0830  -367.6312   680.8645 H6            1 RES     
   23026 H6        -516.6092  -365.5003   680.4849 H6            1 RES     
   23027 H6        -517.5806  -364.1305   680.7129 H6            1 RES     
   23028 H6        -517.0222  -365.9872   683.0913 H6            1 RES     
   23029 H6        -518.6631  -364.1340   683.3989 H6            1 RES     
   23030 H6        -517.2836  -364.1163   684.5431 H6            1 RES     
   23031 H6        -516.2014  -362.2334   683.3594 H6            1 RES     
   23032 H6        -517.4340  -362.3038   682.0805 H6            1 RES     
   23033 H6        -517.9957  -360.4566   683.4486 H6            1 RES     
   23034 H6        -519.1975  -361.7254   683.7806 H6            1 RES     
   23035 H6        -518.0053  -362.3033   685.9175 H6            1 RES     
   23036 H6        -518.5629  -360.6017   685.8483 H6            1 RES     
   23037 H6        -515.6488  -361.5527   685.4262 H6            1 RES     
   23038 H6        -516.3393  -360.7597   686.8749 H6            1 RES     
   23039 H6        -516.8388  -358.6955   685.5383 H6            1 RES     
   23040 H6        -515.0873  -359.1238   685.5327 H6            1 RES     
   23041 H6        -516.0809  -359.4632   684.0826 H6            1 RES     
   23042 H6        -514.8493  -365.8498   682.3794 H6            1 RES     
   23043 H6        -514.9797  -364.6285   683.6805 H6            1 RES     
   23044 H6        -515.0925  -362.8596   681.6981 H6            1 RES     
   23045 H6        -514.7565  -364.2097   680.6070 H6            1 RES     
   23046 H6        -512.7718  -362.8851   681.1694 H6            1 RES     
   23047 H6        -512.9956  -363.1821   682.9294 H6            1 RES     
   23048 H6        -512.3901  -365.3738   680.8201 H6            1 RES     
   23049 H6        -512.6056  -365.6190   682.5927 H6            1 RES     
   23050 H6        -510.6339  -364.1755   683.0765 H6            1 RES     
   23051 H6        -510.2707  -365.6457   682.1031 H6            1 RES     
   23052 H6        -510.5734  -362.7969   680.9539 H6            1 RES     
   23053 H6        -510.2085  -364.2813   680.0022 H6            1 RES     
   23054 H6        -508.2115  -362.8702   680.4538 H6            1 RES     
   23055 H6        -508.4607  -363.0216   682.2295 H6            1 RES     
   23056 H6        -508.0247  -365.4971   682.0639 H6            1 RES     
   23057 H6        -506.6728  -364.5408   681.3790 H6            1 RES     
   23058 H6        -507.8487  -365.3368   680.2669 H6            1 RES     
   23059 C0        -526.3401  -375.2624   675.9610 C0            1 RES     
   23060 C0        -527.8241  -375.5944   676.1210 C0            1 RES     
   23061 C0        -528.3709  -374.9281   677.1660 C0            1 RES     
   23062 S1        -530.0110  -375.2089   677.3474 S1            1 RES     
   23063 C0        -530.0585  -376.2547   676.0036 C0            1 RES     
   23064 C0        -528.7847  -376.3139   675.4130 C0            1 RES     
   23065 C0        -527.4096  -374.0341   677.7131 C0            1 RES     
   23066 C0        -526.2988  -374.1509   677.0210 C0            1 RES     
   23067 C0        -525.3604  -373.0895   677.3349 C0            1 RES     
   23068 C0        -525.8825  -372.2489   678.3062 C0            1 RES     
   23069 S1        -527.5208  -372.7123   678.9041 S1            1 RES     
   23070 H2        -528.6094  -376.8148   674.4849 H2            1 RES     
   23071 H2        -524.4531  -372.8768   676.7961 H2            1 RES     
   23072 N3        -532.1407  -378.8228   674.1983 N3            1 RES     
   23073 C0        -531.0772  -378.1181   674.6798 C0            1 RES     
   23074 C0        -531.2525  -376.9801   675.4926 C0            1 RES     
   23075 C0        -532.5743  -376.6124   675.7943 C0            1 RES     
   23076 N3        -532.9203  -375.5429   676.5595 N3            1 RES     
   23077 S1        -534.5727  -375.6015   676.5302 S1            1 RES     
   23078 N3        -534.9069  -376.9213   675.5952 N3            1 RES     
   23079 C0        -533.6633  -377.3590   675.2700 C0            1 RES     
   23080 C0        -533.4267  -378.4695   674.4703 C0            1 RES     
   23081 H4        -530.0861  -378.4691   674.4525 H4            1 RES     
   23082 C5        -532.1106  -378.6817   668.7197 C5            1 RES     
   23083 C5        -531.5582  -377.4845   669.4948 C5            1 RES     
   23084 C5        -530.8242  -377.8715   670.7910 C5            1 RES     
   23085 C5        -529.5804  -378.7552   670.5713 C5            1 RES     
   23086 C5        -528.8841  -379.0455   671.9121 C5            1 RES     
   23087 C5        -527.7680  -380.0924   671.7876 C5            1 RES     
   23088 C5        -527.1282  -380.4410   673.1526 C5            1 RES     
   23089 C5        -526.0734  -379.4151   673.6720 C5            1 RES     
   23090 C5        -526.3943  -378.7046   675.0231 C5            1 RES     
   23091 C5        -526.5622  -379.7128   676.1970 C5            1 RES     
   23092 C5        -527.4291  -379.1491   677.3384 C5            1 RES     
   23093 C5        -528.0140  -380.2777   678.2143 C5            1 RES     
   23094 C5        -529.0974  -379.7345   679.1635 C5            1 RES     
   23095 C5        -529.9230  -380.8418   679.8431 C5            1 RES     
   23096 C5        -529.1155  -381.7138   680.7981 C5            1 RES     
   23097 C5        -525.2944  -377.6183   675.2575 C5            1 RES     
   23098 C0        -525.3278  -376.4425   676.3083 C0            1 RES     
   23099 C5        -523.8257  -375.9269   676.3916 C5            1 RES     
   23100 C5        -523.0388  -376.4055   677.6573 C5            1 RES     
   23101 C5        -523.2490  -375.4921   678.9098 C5            1 RES     
   23102 C5        -522.5145  -374.1312   678.8741 C5            1 RES     
   23103 C5        -522.8833  -373.1809   680.0278 C5            1 RES     
   23104 C5        -522.3526  -373.5867   681.4160 C5            1 RES     
   23105 C5        -520.8142  -373.6316   681.5408 C5            1 RES     
   23106 C5        -520.1374  -372.2888   681.2463 C5            1 RES     
   23107 C5        -521.5308  -376.7176   677.3788 C5            1 RES     
   23108 C5        -520.7273  -375.6953   676.5340 C5            1 RES     
   23109 C5        -519.2105  -375.9899   676.5024 C5            1 RES     
   23110 C5        -518.8467  -377.3678   675.9174 C5            1 RES     
   23111 C5        -517.3286  -377.6369   675.8854 C5            1 RES     
   23112 C5        -516.5650  -376.7240   674.9064 C5            1 RES     
   23113 C5        -515.0495  -376.9916   674.8760 C5            1 RES     
   23114 C5        -514.6806  -378.3879   674.3726 C5            1 RES     
   23115 H6        -531.2905  -379.3326   668.3546 H6            1 RES     
   23116 H6        -532.6743  -378.3179   667.8343 H6            1 RES     
   23117 H6        -532.7996  -379.2747   669.3580 H6            1 RES     
   23118 H6        -530.8798  -376.9012   668.8366 H6            1 RES     
   23119 H6        -532.4167  -376.8329   669.7711 H6            1 RES     
   23120 H6        -530.5143  -376.9317   671.2974 H6            1 RES     
   23121 H6        -531.5384  -378.4028   671.4582 H6            1 RES     
   23122 H6        -528.8658  -378.2527   669.8834 H6            1 RES     
   23123 H6        -529.9013  -379.7173   670.1195 H6            1 RES     
   23124 H6        -528.4919  -378.0993   672.3425 H6            1 RES     
   23125 H6        -529.6449  -379.4807   672.5893 H6            1 RES     
   23126 H6        -528.2496  -381.0176   671.4002 H6            1 RES     
   23127 H6        -526.9873  -379.7853   671.0588 H6            1 RES     
   23128 H6        -527.9449  -380.6481   673.8733 H6            1 RES     
   23129 H6        -526.5811  -381.3978   673.0145 H6            1 RES     
   23130 H6        -525.9573  -378.6369   672.8844 H6            1 RES     
   23131 H6        -525.0847  -379.9173   673.7493 H6            1 RES     
   23132 H6        -527.3523  -378.2773   674.8279 H6            1 RES     
   23133 H6        -527.1322  -380.5752   675.8109 H6            1 RES     
   23134 H6        -525.5938  -380.1259   676.5535 H6            1 RES     
   23135 H6        -526.8749  -378.3947   677.9358 H6            1 RES     
   23136 H6        -528.3048  -378.6534   676.8695 H6            1 RES     
   23137 H6        -527.2084  -380.8035   678.7701 H6            1 RES     
   23138 H6        -528.5146  -381.0098   677.5420 H6            1 RES     
   23139 H6        -528.6449  -379.0575   679.9187 H6            1 RES     
   23140 H6        -529.8229  -379.1445   678.5597 H6            1 RES     
   23141 H6        -530.3931  -381.4857   679.0665 H6            1 RES     
   23142 H6        -530.7400  -380.3600   680.4230 H6            1 RES     
   23143 H6        -528.6704  -381.0897   681.6009 H6            1 RES     
   23144 H6        -528.3142  -382.2589   680.2589 H6            1 RES     
   23145 H6        -529.7911  -382.4633   681.2638 H6            1 RES     
   23146 H6        -525.1233  -377.0969   674.2894 H6            1 RES     
   23147 H6        -524.3835  -378.2275   675.4639 H6            1 RES     
   23148 H6        -523.2876  -376.3022   675.4958 H6            1 RES     
   23149 H6        -523.7071  -374.8437   676.2502 H6            1 RES     
   23150 H6        -523.4690  -377.3937   677.9405 H6            1 RES     
   23151 H6        -524.3415  -375.3286   679.0339 H6            1 RES     
   23152 H6        -522.8883  -376.0351   679.8095 H6            1 RES     
   23153 H6        -521.4199  -374.2722   678.8859 H6            1 RES     
   23154 H6        -522.7723  -373.6157   677.9374 H6            1 RES     
   23155 H6        -522.4914  -372.1698   679.7894 H6            1 RES     
   23156 H6        -523.9870  -373.0886   680.0778 H6            1 RES     
   23157 H6        -522.7671  -374.5773   681.6956 H6            1 RES     
   23158 H6        -522.7322  -372.8452   682.1532 H6            1 RES     
   23159 H6        -520.3886  -374.4102   680.8754 H6            1 RES     
   23160 H6        -520.5665  -373.9152   682.5864 H6            1 RES     
   23161 H6        -520.5347  -371.4971   681.9167 H6            1 RES     
   23162 H6        -519.0438  -372.3794   681.4168 H6            1 RES     
   23163 H6        -520.2866  -371.9858   680.1897 H6            1 RES     
   23164 H6        -521.4962  -377.6708   676.8097 H6            1 RES     
   23165 H6        -521.0301  -376.8986   678.3550 H6            1 RES     
   23166 H6        -520.8262  -374.6701   676.9184 H6            1 RES     
   23167 H6        -521.1138  -375.6793   675.4953 H6            1 RES     
   23168 H6        -518.7439  -375.1913   675.8896 H6            1 RES     
   23169 H6        -518.8046  -375.9149   677.5354 H6            1 RES     
   23170 H6        -519.2628  -377.4710   674.8920 H6            1 RES     
   23171 H6        -519.2967  -378.1532   676.5599 H6            1 RES     
   23172 H6        -516.9105  -377.5299   676.9105 H6            1 RES     
   23173 H6        -517.1961  -378.6909   675.5646 H6            1 RES     
   23174 H6        -516.6942  -375.6658   675.2111 H6            1 RES     
   23175 H6        -516.9798  -376.8466   673.8820 H6            1 RES     
   23176 H6        -514.5853  -376.2506   674.1889 H6            1 RES     
   23177 H6        -514.6190  -376.8386   675.8893 H6            1 RES     
   23178 H6        -515.0571  -379.1751   675.0563 H6            1 RES     
   23179 H6        -513.5747  -378.4809   674.3272 H6            1 RES     
   23180 H6        -515.0917  -378.5523   673.3543 H6            1 RES     
   23181 C0        -536.2392  -381.1640   671.1287 C0            1 RES     
   23182 C0        -537.7113  -381.0970   671.5368 C0            1 RES     
   23183 C0        -537.8537  -380.6401   672.8041 C0            1 RES     
   23184 S1        -539.4514  -380.4886   673.2796 S1            1 RES     
   23185 C0        -540.0312  -381.0379   671.7749 C0            1 RES     
   23186 C0        -538.9454  -381.2773   670.9155 C0            1 RES     
   23187 C0        -536.5836  -380.2534   673.3139 C0            1 RES     
   23188 C0        -535.6832  -380.4700   672.3817 C0            1 RES     
   23189 C0        -534.4115  -379.8557   672.7151 C0            1 RES     
   23190 C0        -534.4834  -379.2248   673.9478 C0            1 RES     
   23191 S1        -536.0816  -379.3626   674.7741 S1            1 RES     
   23192 H2        -539.0783  -381.5128   669.8811 H2            1 RES     
   23193 H2        -533.5701  -379.7587   672.0508 H2            1 RES     
   23194 N3        -543.0791  -382.2711   669.9366 N3            1 RES     
   23195 C0        -541.7856  -382.0670   670.3170 C0            1 RES     
   23196 C0        -541.4574  -381.2155   671.3911 C0            1 RES     
   23197 C0        -542.5261  -380.5961   672.0601 C0            1 RES     
   23198 N3        -542.3867  -379.7452   673.1116 N3            1 RES     
   23199 S1        -543.9516  -379.3255   673.4425 S1            1 RES     
   23200 N3        -544.8325  -380.1642   672.3251 N3            1 RES     
   23201 C0        -543.8633  -380.8188   671.6352 C0            1 RES     
   23202 C0        -544.1233  -381.6662   670.5661 C0            1 RES     
   23203 H4        -541.0094  -382.6000   669.7968 H4            1 RES     
   23204 C5        -543.7723  -380.5474   664.7806 C5            1 RES     
   23205 C5        -542.7510  -379.8354   665.6689 C5            1 RES     
   23206 C5        -542.0129  -380.7748   666.6392 C5            1 RES     
   23207 C5        -541.1768  -381.8679   665.9448 C5            1 RES     
   23208 C5        -540.4356  -382.7214   666.9885 C5            1 RES     
   23209 C5        -539.7594  -383.9556   666.3748 C5            1 RES     
   23210 C5        -539.0869  -384.8536   667.4404 C5            1 RES     
   23211 C5        -537.6896  -384.3645   667.9337 C5            1 RES     
   23212 C5        -537.5637  -384.0203   669.4498 C5            1 RES     
   23213 C5        -537.8904  -385.2381   670.3626 C5            1 RES     
   23214 C5        -538.3520  -384.8131   671.7691 C5            1 RES     
   23215 C5        -539.1494  -385.9365   672.4659 C5            1 RES     
   23216 C5        -539.8466  -385.4132   673.7347 C5            1 RES     
   23217 C5        -540.8889  -386.3918   674.3048 C5            1 RES     
   23218 C5        -540.2912  -387.6954   674.8226 C5            1 RES     
   23219 C5        -536.1443  -383.4054   669.6775 C5            1 RES     
   23220 C0        -535.6378  -382.6289   670.9536 C0            1 RES     
   23221 C5        -534.0539  -382.6044   670.8144 C5            1 RES     
   23222 C5        -533.3012  -383.6334   671.7227 C5            1 RES     
   23223 C5        -533.0185  -383.1060   673.1681 C5            1 RES     
   23224 C5        -531.8867  -382.0584   673.2867 C5            1 RES     
   23225 C5        -531.7535  -381.4237   674.6830 C5            1 RES     
   23226 C5        -531.1985  -382.3501   675.7817 C5            1 RES     
   23227 C5        -529.7609  -382.8602   675.5427 C5            1 RES     
   23228 C5        -528.7252  -381.7371   675.4253 C5            1 RES     
   23229 C5        -532.0371  -384.2613   671.0466 C5            1 RES     
   23230 C5        -531.0667  -383.3056   670.3052 C5            1 RES     
   23231 C5        -529.7540  -383.9921   669.8649 C5            1 RES     
   23232 C5        -529.9540  -385.1826   668.9078 C5            1 RES     
   23233 C5        -528.6317  -385.8461   668.4727 C5            1 RES     
   23234 C5        -527.7536  -384.9400   667.5879 C5            1 RES     
   23235 C5        -526.4329  -385.6018   667.1552 C5            1 RES     
   23236 C5        -526.6228  -386.8343   666.2699 C5            1 RES     
   23237 H6        -543.2745  -381.2661   664.0985 H6            1 RES     
   23238 H6        -544.3015  -379.7973   664.1550 H6            1 RES     
   23239 H6        -544.5223  -381.0825   665.4010 H6            1 RES     
   23240 H6        -542.0168  -379.3004   665.0298 H6            1 RES     
   23241 H6        -543.2968  -379.0793   666.2758 H6            1 RES     
   23242 H6        -541.3410  -380.1511   667.2679 H6            1 RES     
   23243 H6        -542.7620  -381.2548   667.3072 H6            1 RES     
   23244 H6        -540.4399  -381.4083   665.2506 H6            1 RES     
   23245 H6        -541.8588  -382.5248   665.3651 H6            1 RES     
   23246 H6        -539.6953  -382.0929   667.5282 H6            1 RES     
   23247 H6        -541.1948  -383.1034   667.6988 H6            1 RES     
   23248 H6        -540.5701  -384.5524   665.9008 H6            1 RES     
   23249 H6        -539.0313  -383.6812   665.5813 H6            1 RES     
   23250 H6        -539.8165  -385.0241   668.2577 H6            1 RES     
   23251 H6        -538.9135  -385.8414   666.9630 H6            1 RES     
   23252 H6        -537.4335  -383.4555   667.3443 H6            1 RES     
   23253 H6        -536.9232  -385.1242   667.6667 H6            1 RES     
   23254 H6        -538.3429  -383.3033   669.5808 H6            1 RES     
   23255 H6        -538.7624  -385.7530   669.9244 H6            1 RES     
   23256 H6        -537.0741  -385.9922   670.3852 H6            1 RES     
   23257 H6        -537.5008  -384.4543   672.3856 H6            1 RES     
   23258 H6        -539.0701  -383.9766   671.6387 H6            1 RES     
   23259 H6        -538.4944  -386.8062   672.6873 H6            1 RES     
   23260 H6        -539.9535  -386.2680   671.7718 H6            1 RES     
   23261 H6        -539.0939  -385.1426   674.5052 H6            1 RES     
   23262 H6        -540.4122  -384.4931   673.4647 H6            1 RES     
   23263 H6        -541.6501  -386.6208   673.5257 H6            1 RES     
   23264 H6        -541.4099  -385.8914   675.1499 H6            1 RES     
   23265 H6        -539.5563  -387.4850   675.6274 H6            1 RES     
   23266 H6        -539.8003  -388.2610   674.0048 H6            1 RES     
   23267 H6        -541.1049  -388.3266   675.2402 H6            1 RES     
   23268 H6        -535.9474  -382.6937   668.8450 H6            1 RES     
   23269 H6        -535.4679  -384.2787   669.5253 H6            1 RES     
   23270 H6        -533.8020  -382.8365   669.7583 H6            1 RES     
   23271 H6        -533.6035  -381.6064   670.9069 H6            1 RES     
   23272 H6        -533.9908  -384.4985   671.8566 H6            1 RES     
   23273 H6        -533.9659  -382.6857   673.5697 H6            1 RES     
   23274 H6        -532.7361  -383.9670   673.8110 H6            1 RES     
   23275 H6        -530.9107  -382.4985   673.0183 H6            1 RES     
   23276 H6        -532.0874  -381.2406   672.5791 H6            1 RES     
   23277 H6        -531.0858  -380.5401   674.6053 H6            1 RES     
   23278 H6        -532.7455  -381.0437   675.0005 H6            1 RES     
   23279 H6        -531.8748  -383.2207   675.9082 H6            1 RES     
   23280 H6        -531.2031  -381.7814   676.7377 H6            1 RES     
   23281 H6        -529.7155  -383.4968   674.6356 H6            1 RES     
   23282 H6        -529.4773  -383.4951   676.4097 H6            1 RES     
   23283 H6        -528.7390  -381.0980   676.3338 H6            1 RES     
   23284 H6        -527.7111  -382.1773   675.3191 H6            1 RES     
   23285 H6        -528.9119  -381.1091   674.5303 H6            1 RES     
   23286 H6        -532.4009  -384.9756   670.2779 H6            1 RES     
   23287 H6        -531.4932  -384.8532   671.8149 H6            1 RES     
   23288 H6        -530.7648  -382.4534   670.9306 H6            1 RES     
   23289 H6        -531.5676  -382.8784   669.4136 H6            1 RES     
   23290 H6        -529.1396  -383.2142   669.3666 H6            1 RES     
   23291 H6        -529.2056  -384.3400   670.7681 H6            1 RES     
   23292 H6        -530.5201  -384.8598   668.0075 H6            1 RES     
   23293 H6        -530.5443  -385.9619   669.4335 H6            1 RES     
   23294 H6        -528.0624  -386.1658   669.3732 H6            1 RES     
   23295 H6        -528.9028  -386.7527   667.8933 H6            1 RES     
   23296 H6        -527.4801  -384.0257   668.1523 H6            1 RES     
   23297 H6        -528.3248  -384.6356   666.6837 H6            1 RES     
   23298 H6        -525.8503  -384.8540   666.5738 H6            1 RES     
   23299 H6        -525.8385  -385.8795   668.0525 H6            1 RES     
   23300 H6        -527.1395  -387.6480   666.8175 H6            1 RES     
   23301 H6        -525.6285  -387.2170   665.9561 H6            1 RES     
   23302 H6        -527.2037  -386.5710   665.3609 H6            1 RES     
   23303 C0        -548.1097  -382.3602   667.4095 C0            1 RES     
   23304 C0        -549.4034  -382.0044   668.1428 C0            1 RES     
   23305 C0        -549.2069  -381.9176   669.4803 C0            1 RES     
   23306 S1        -550.5804  -381.4690   670.3253 S1            1 RES     
   23307 C0        -551.5146  -381.3676   668.9044 C0            1 RES     
   23308 C0        -550.7017  -381.6403   667.7910 C0            1 RES     
   23309 C0        -547.8223  -382.0705   669.7667 C0            1 RES     
   23310 C0        -547.1850  -382.2488   668.6316 C0            1 RES     
   23311 C0        -545.7481  -382.1426   668.8039 C0            1 RES     
   23312 C0        -545.4329  -381.9065   670.1334 C0            1 RES     
   23313 S1        -546.8537  -381.8248   671.2429 S1            1 RES     
   23314 H2        -551.0488  -381.5154   666.7875 H2            1 RES     
   23315 H2        -545.0242  -382.0961   668.0086 H2            1 RES     
   23316 N3        -555.0248  -381.0998   667.5641 N3            1 RES     
   23317 C0        -553.6971  -381.3883   667.6803 C0            1 RES     
   23318 C0        -552.9578  -381.0166   668.8212 C0            1 RES     
   23319 C0        -553.6553  -380.3458   669.8394 C0            1 RES     
   23320 N3        -553.0954  -379.9151   671.0013 N3            1 RES     
   23321 S1        -554.3696  -379.1882   671.7649 S1            1 RES     
   23322 N3        -555.6263  -379.3800   670.7104 N3            1 RES     
   23323 C0        -555.0362  -380.0490   669.6866 C0            1 RES     
   23324 C0        -555.7098  -380.4375   668.5361 C0            1 RES     
   23325 H4        -553.2229  -381.9414   666.8889 H4            1 RES     
   23326 C5        -555.8223  -377.8207   663.2458 C5            1 RES     
   23327 C5        -554.5087  -377.7171   664.0223 C5            1 RES     
   23328 C5        -553.9959  -379.0671   664.5545 C5            1 RES     
   23329 C5        -553.6761  -380.0980   663.4540 C5            1 RES     
   23330 C5        -553.1217  -381.3919   664.0749 C5            1 RES     
   23331 C5        -552.9865  -382.5305   663.0538 C5            1 RES     
   23332 C5        -552.5079  -383.8521   663.7006 C5            1 RES     
   23333 C5        -550.9729  -383.9424   663.9666 C5            1 RES     
   23334 C5        -550.5286  -384.1069   665.4528 C5            1 RES     
   23335 C5        -551.1096  -385.3952   666.1053 C5            1 RES     
   23336 C5        -551.2019  -385.2885   667.6390 C5            1 RES     
   23337 C5        -552.2209  -386.2949   668.2153 C5            1 RES     
   23338 C5        -552.5197  -385.9918   669.6947 C5            1 RES     
   23339 C5        -553.7370  -386.7600   670.2402 C5            1 RES     
   23340 C5        -553.5394  -388.2710   670.2909 C5            1 RES     
   23341 C5        -548.9686  -384.0106   665.4920 C5            1 RES     
   23342 C0        -548.0595  -383.8168   666.7663 C0            1 RES     
   23343 C5        -546.5933  -384.1991   666.2835 C5            1 RES     
   23344 C5        -546.1054  -385.6170   666.7328 C5            1 RES     
   23345 C5        -545.4639  -385.6375   668.1594 C5            1 RES     
   23346 C5        -544.0438  -385.0329   668.2614 C5            1 RES     
   23347 C5        -543.5132  -384.8989   669.7003 C5            1 RES     
   23348 C5        -543.1488  -386.2232   670.3982 C5            1 RES     
   23349 C5        -542.0106  -387.0237   669.7292 C5            1 RES     
   23350 C5        -540.6881  -386.2542   669.6472 C5            1 RES     
   23351 C5        -545.2293  -386.3484   665.6619 C5            1 RES     
   23352 C5        -544.1109  -385.5309   664.9653 C5            1 RES     
   23353 C5        -543.1759  -386.3987   664.0927 C5            1 RES     
   23354 C5        -543.8918  -387.1504   662.9544 C5            1 RES     
   23355 C5        -542.9395  -388.0012   662.0900 C5            1 RES     
   23356 C5        -541.9437  -387.1611   661.2669 C5            1 RES     
   23357 C5        -540.9920  -388.0107   660.4055 C5            1 RES     
   23358 C5        -541.7024  -388.8247   659.3230 C5            1 RES     
   23359 H6        -555.6920  -378.4179   662.3207 H6            1 RES     
   23360 H6        -556.1547  -376.8032   662.9486 H6            1 RES     
   23361 H6        -556.6125  -378.2803   663.8767 H6            1 RES     
   23362 H6        -553.7359  -377.2476   663.3773 H6            1 RES     
   23363 H6        -554.6818  -377.0502   664.8960 H6            1 RES     
   23364 H6        -553.0740  -378.8701   665.1434 H6            1 RES     
   23365 H6        -554.7603  -379.4906   665.2429 H6            1 RES     
   23366 H6        -552.9335  -379.6821   662.7386 H6            1 RES     
   23367 H6        -554.6116  -380.3370   662.9058 H6            1 RES     
   23368 H6        -552.1468  -381.1836   664.5654 H6            1 RES     
   23369 H6        -553.8571  -381.7354   664.8286 H6            1 RES     
   23370 H6        -554.0073  -382.7093   662.6487 H6            1 RES     
   23371 H6        -552.3276  -382.2522   662.2034 H6            1 RES     
   23372 H6        -553.1304  -384.0420   664.5982 H6            1 RES     
   23373 H6        -552.7409  -384.6640   662.9792 H6            1 RES     
   23374 H6        -550.5149  -383.0111   663.5637 H6            1 RES     
   23375 H6        -550.5475  -384.7741   663.3641 H6            1 RES     
   23376 H6        -550.9992  -383.2708   665.9196 H6            1 RES     
   23377 H6        -552.1554  -385.4923   665.7670 H6            1 RES     
   23378 H6        -550.5953  -386.3205   665.7667 H6            1 RES     
   23379 H6        -550.2024  -385.3804   668.1142 H6            1 RES     
   23380 H6        -551.6124  -384.2839   667.8728 H6            1 RES     
   23381 H6        -551.8675  -387.3387   668.0741 H6            1 RES     
   23382 H6        -553.1784  -386.1687   667.6624 H6            1 RES     
   23383 H6        -551.6198  -386.1817   670.3172 H6            1 RES     
   23384 H6        -552.7799  -384.9129   669.7817 H6            1 RES     
   23385 H6        -554.6322  -386.5273   669.6213 H6            1 RES     
   23386 H6        -553.9383  -386.4035   671.2738 H6            1 RES     
   23387 H6        -552.6712  -388.5209   670.9358 H6            1 RES     
   23388 H6        -553.3838  -388.6867   669.2746 H6            1 RES     
   23389 H6        -554.4494  -388.7413   670.7218 H6            1 RES     
   23390 H6        -548.6654  -383.1719   664.8264 H6            1 RES     
   23391 H6        -548.6487  -384.9544   664.9917 H6            1 RES     
   23392 H6        -546.5835  -384.1730   665.1736 H6            1 RES     
   23393 H6        -545.8290  -383.4407   666.5027 H6            1 RES     
   23394 H6        -547.0169  -386.2529   666.8128 H6            1 RES     
   23395 H6        -546.1519  -385.1045   668.8509 H6            1 RES     
   23396 H6        -545.3961  -386.6919   668.5029 H6            1 RES     
   23397 H6        -543.3170  -385.6311   667.6848 H6            1 RES     
   23398 H6        -544.0589  -384.0221   667.8283 H6            1 RES     
   23399 H6        -542.6079  -384.2564   669.6828 H6            1 RES     
   23400 H6        -544.2679  -384.3656   670.3129 H6            1 RES     
   23401 H6        -544.0509  -386.8657   670.4669 H6            1 RES     
   23402 H6        -542.8304  -385.9818   671.4364 H6            1 RES     
   23403 H6        -542.3068  -387.3528   668.7122 H6            1 RES     
   23404 H6        -541.8352  -387.9374   670.3371 H6            1 RES     
   23405 H6        -540.3616  -385.9320   670.6589 H6            1 RES     
   23406 H6        -539.9032  -386.9105   669.2154 H6            1 RES     
   23407 H6        -540.7794  -385.3657   668.9893 H6            1 RES     
   23408 H6        -545.9136  -386.6740   664.8499 H6            1 RES     
   23409 H6        -544.8107  -387.2671   666.1279 H6            1 RES     
   23410 H6        -543.4587  -385.0199   665.6878 H6            1 RES     
   23411 H6        -544.5613  -384.7387   664.3345 H6            1 RES     
   23412 H6        -542.4145  -385.7146   663.6647 H6            1 RES     
   23413 H6        -542.6532  -387.1351   664.7422 H6            1 RES     
   23414 H6        -544.4390  -386.4327   662.3057 H6            1 RES     
   23415 H6        -544.6274  -387.8504   663.4026 H6            1 RES     
   23416 H6        -542.3883  -388.7171   662.7388 H6            1 RES     
   23417 H6        -543.5746  -388.5841   661.3913 H6            1 RES     
   23418 H6        -541.3060  -386.5676   661.9527 H6            1 RES     
   23419 H6        -542.5023  -386.4577   660.6114 H6            1 RES     
   23420 H6        -540.2819  -387.3210   659.8990 H6            1 RES     
   23421 H6        -540.4039  -388.6943   661.0555 H6            1 RES     
   23422 H6        -542.3777  -389.5833   659.7674 H6            1 RES     
   23423 H6        -540.9458  -389.3623   658.7129 H6            1 RES     
   23424 H6        -542.2843  -388.1547   658.6556 H6            1 RES     
   23425 C0        -560.1014  -379.0271   666.2862 C0            1 RES     
   23426 C0        -561.0874  -378.5527   667.3543 C0            1 RES     
   23427 C0        -560.6877  -378.9200   668.5955 C0            1 RES     
   23428 S1        -561.7016  -378.3711   669.8090 S1            1 RES     
   23429 C0        -562.7386  -377.6000   668.6990 C0            1 RES     
   23430 C0        -562.2269  -377.7519   667.3991 C0            1 RES     
   23431 C0        -559.4067  -379.5329   668.5188 C0            1 RES     
   23432 C0        -559.0305  -379.5430   667.2598 C0            1 RES     
   23433 C0        -557.6307  -379.9003   667.1240 C0            1 RES     
   23434 C0        -557.0719  -380.1622   668.3657 C0            1 RES     
   23435 S1        -558.2146  -380.0128   669.7543 S1            1 RES     
   23436 H2        -562.6500  -377.2466   666.5573 H2            1 RES     
   23437 H2        -557.0515  -379.8287   666.2195 H2            1 RES     
   23438 N3        -566.1121  -375.9759   668.2846 N3            1 RES     
   23439 C0        -564.9531  -376.6469   668.0280 C0            1 RES     
   23440 C0        -563.9800  -376.8490   669.0274 C0            1 RES     
   23441 C0        -564.2653  -376.3377   670.3043 C0            1 RES     
   23442 N3        -563.4371  -376.4415   671.3778 N3            1 RES     
   23443 S1        -564.2774  -375.6424   672.5568 S1            1 RES     
   23444 N3        -565.6612  -375.1558   671.7978 N3            1 RES     
   23445 C0        -565.4763  -375.6335   670.5402 C0            1 RES     
   23446 C0        -566.3950  -375.4624   669.5129 C0            1 RES     
   23447 H4        -564.8052  -377.0542   667.0434 H4            1 RES     
   23448 C5        -566.3731  -371.4911   665.1454 C5            1 RES     
   23449 C5        -565.0045  -371.9930   665.6082 C5            1 RES     
   23450 C5        -564.8997  -373.5268   665.6807 C5            1 RES     
   23451 C5        -565.0978  -374.2369   664.3270 C5            1 RES     
   23452 C5        -564.9230  -375.7570   664.4872 C5            1 RES     
   23453 C5        -565.3179  -376.5368   663.2250 C5            1 RES     
   23454 C5        -565.2194  -378.0686   663.4203 C5            1 RES     
   23455 C5        -563.7802  -378.6606   663.3050 C5            1 RES     
   23456 C5        -563.2120  -379.3707   664.5723 C5            1 RES     
   23457 C5        -564.0900  -380.5757   665.0196 C5            1 RES     
   23458 C5        -563.9257  -380.9011   666.5159 C5            1 RES     
   23459 C5        -565.1295  -381.7029   667.0556 C5            1 RES     
   23460 C5        -565.1002  -381.7749   668.5930 C5            1 RES     
   23461 C5        -566.4141  -382.2943   669.2038 C5            1 RES     
   23462 C5        -566.7242  -383.7456   668.8543 C5            1 RES     
   23463 C5        -561.7193  -379.7329   664.2805 C5            1 RES     
   23464 C0        -560.6282  -380.1843   665.3263 C0            1 RES     
   23465 C5        -559.4551  -380.8047   664.4501 C5            1 RES     
   23466 C5        -559.4075  -382.3693   664.4340 C5            1 RES     
   23467 C5        -558.6159  -382.9858   665.6341 C5            1 RES     
   23468 C5        -557.0762  -382.8625   665.5519 C5            1 RES     
   23469 C5        -556.3350  -383.3103   666.8247 C5            1 RES     
   23470 C5        -556.3368  -384.8272   667.0935 C5            1 RES     
   23471 C5        -555.6345  -385.6832   666.0173 C5            1 RES     
   23472 C5        -554.1570  -385.3277   665.8215 C5            1 RES     
   23473 C5        -558.9832  -382.9707   663.0528 C5            1 RES     
   23474 C5        -557.7662  -382.3342   662.3329 C5            1 RES     
   23475 C5        -557.3044  -383.1348   661.0943 C5            1 RES     
   23476 C5        -558.3813  -383.2874   660.0033 C5            1 RES     
   23477 C5        -557.8965  -384.0799   658.7724 C5            1 RES     
   23478 C5        -556.8042  -383.3512   657.9657 C5            1 RES     
   23479 C5        -556.3192  -384.1432   656.7382 C5            1 RES     
   23480 C5        -557.4038  -384.3707   655.6842 C5            1 RES     
   23481 H6        -566.5796  -371.8028   664.1015 H6            1 RES     
   23482 H6        -566.3872  -370.3807   665.1767 H6            1 RES     
   23483 H6        -567.1744  -371.8736   665.8128 H6            1 RES     
   23484 H6        -564.2182  -371.5924   664.9337 H6            1 RES     
   23485 H6        -564.8221  -371.5905   666.6293 H6            1 RES     
   23486 H6        -563.8916  -373.7783   666.0761 H6            1 RES     
   23487 H6        -565.6567  -373.9004   666.4052 H6            1 RES     
   23488 H6        -564.3672  -373.8562   663.5802 H6            1 RES     
   23489 H6        -566.1266  -374.0318   663.9634 H6            1 RES     
   23490 H6        -563.8757  -375.9843   664.7803 H6            1 RES     
   23491 H6        -565.6173  -376.0847   665.2855 H6            1 RES     
   23492 H6        -566.3863  -376.2946   663.0300 H6            1 RES     
   23493 H6        -564.7301  -376.2189   662.3371 H6            1 RES     
   23494 H6        -565.7373  -378.3297   664.3652 H6            1 RES     
   23495 H6        -565.8073  -378.5340   662.6008 H6            1 RES     
   23496 H6        -563.1004  -377.8203   663.0383 H6            1 RES     
   23497 H6        -563.7439  -379.3639   662.4451 H6            1 RES     
   23498 H6        -563.3080  -378.6109   665.3152 H6            1 RES     
   23499 H6        -565.1452  -380.2714   664.9125 H6            1 RES     
   23500 H6        -563.9648  -381.4669   664.3672 H6            1 RES     
   23501 H6        -562.9572  -381.4051   666.7188 H6            1 RES     
   23502 H6        -563.9424  -379.9359   667.0642 H6            1 RES     
   23503 H6        -565.1660  -382.7150   666.5986 H6            1 RES     
   23504 H6        -566.0583  -381.1566   666.7778 H6            1 RES     
   23505 H6        -564.2365  -382.3836   668.9347 H6            1 RES     
   23506 H6        -564.9726  -380.7411   668.9858 H6            1 RES     
   23507 H6        -567.2588  -381.6487   668.8744 H6            1 RES     
   23508 H6        -566.3387  -382.2143   670.3100 H6            1 RES     
   23509 H6        -565.9069  -384.4069   669.2104 H6            1 RES     
   23510 H6        -566.8596  -383.8719   667.7609 H6            1 RES     
   23511 H6        -567.6688  -384.0457   669.3571 H6            1 RES     
   23512 H6        -561.2514  -378.8569   663.7785 H6            1 RES     
   23513 H6        -561.8043  -380.5390   663.5147 H6            1 RES     
   23514 H6        -559.5929  -380.4588   663.4041 H6            1 RES     
   23515 H6        -558.4597  -380.3906   664.6623 H6            1 RES     
   23516 H6        -560.4577  -382.7175   664.5665 H6            1 RES     
   23517 H6        -558.9839  -382.5075   666.5677 H6            1 RES     
   23518 H6        -558.8545  -384.0691   665.6975 H6            1 RES     
   23519 H6        -556.6776  -383.4447   664.7031 H6            1 RES     
   23520 H6        -556.8155  -381.8076   665.3817 H6            1 RES     
   23521 H6        -555.2798  -382.9724   666.7543 H6            1 RES     
   23522 H6        -556.7761  -382.7898   667.6987 H6            1 RES     
   23523 H6        -557.3820  -385.1809   667.2116 H6            1 RES     
   23524 H6        -555.8141  -385.0000   668.0601 H6            1 RES     
   23525 H6        -556.1626  -385.6031   665.0452 H6            1 RES     
   23526 H6        -555.6890  -386.7455   666.3394 H6            1 RES     
   23527 H6        -553.6036  -385.4211   666.7802 H6            1 RES     
   23528 H6        -553.7031  -386.0220   665.0830 H6            1 RES     
   23529 H6        -554.0395  -384.2976   665.4273 H6            1 RES     
   23530 H6        -559.8434  -382.8383   662.3629 H6            1 RES     
   23531 H6        -558.8323  -384.0644   663.1847 H6            1 RES     
   23532 H6        -556.8869  -382.2620   662.9888 H6            1 RES     
   23533 H6        -558.0119  -381.2988   662.0227 H6            1 RES     
   23534 H6        -556.4271  -382.5985   660.6776 H6            1 RES     
   23535 H6        -556.9701  -384.1449   661.4189 H6            1 RES     
   23536 H6        -558.7445  -382.2878   659.6805 H6            1 RES     
   23537 H6        -559.2370  -383.8515   660.4294 H6            1 RES     
   23538 H6        -557.5290  -385.0790   659.0948 H6            1 RES     
   23539 H6        -558.7804  -384.2295   658.1184 H6            1 RES     
   23540 H6        -555.9162  -383.1888   658.6094 H6            1 RES     
   23541 H6        -557.1837  -382.3594   657.6358 H6            1 RES     
   23542 H6        -555.4989  -383.5644   656.2602 H6            1 RES     
   23543 H6        -555.9063  -385.1236   657.0608 H6            1 RES     
   23544 H6        -558.2232  -385.0042   656.0794 H6            1 RES     
   23545 H6        -556.9620  -384.8962   654.8110 H6            1 RES     
   23546 H6        -557.8178  -383.3994   655.3404 H6            1 RES     
   23547 C0        -570.3390  -372.2801   668.7035 C0            1 RES     
   23548 C0        -570.9515  -371.8819   670.0467 C0            1 RES     
   23549 C0        -570.5266  -372.6932   671.0449 C0            1 RES     
   23550 S1        -571.1200  -372.2615   672.5493 S1            1 RES     
   23551 C0        -571.9871  -370.9403   671.9131 C0            1 RES     
   23552 C0        -571.7424  -370.8427   670.5327 C0            1 RES     
   23553 C0        -569.5458  -373.5911   670.5406 C0            1 RES     
   23554 C0        -569.3747  -373.3376   669.2627 C0            1 RES     
   23555 C0        -568.2066  -374.0181   668.7354 C0            1 RES     
   23556 C0        -567.5981  -374.7780   669.7229 C0            1 RES     
   23557 S1        -568.4198  -374.7264   671.3287 S1            1 RES     
   23558 H2        -572.0874  -370.0155   669.9498 H2            1 RES     
   23559 H2        -567.7693  -373.8509   667.7661 H2            1 RES     
   23560 N3        -574.6531  -368.3862   672.6603 N3            1 RES     
   23561 C0        -573.8306  -369.2502   671.9998 C0            1 RES     
   23562 C0        -572.8498  -370.0010   672.6787 C0            1 RES     
   23563 C0        -572.7672  -369.8271   674.0702 C0            1 RES     
   23564 N3        -571.8786  -370.4690   674.8749 N3            1 RES     
   23565 S1        -572.2319  -369.8474   676.3660 S1            1 RES     
   23566 N3        -573.4677  -368.7914   676.0734 N3            1 RES     
   23567 C0        -573.6301  -368.9120   674.7306 C0            1 RES     
   23568 C0        -574.5744  -368.1967   674.0058 C0            1 RES     
   23569 H4        -573.9659  -369.3759   670.9400 H4            1 RES     
   23570 C5        -573.8482  -363.2952   670.7972 C5            1 RES     
   23571 C5        -572.6732  -364.2742   670.8094 C5            1 RES     
   23572 C5        -573.0743  -365.7267   670.4962 C5            1 RES     
   23573 C5        -573.6846  -365.9239   669.0945 C5            1 RES     
   23574 C5        -574.0036  -367.4092   668.8516 C5            1 RES     
   23575 C5        -574.8078  -367.6415   667.5646 C5            1 RES     
   23576 C5        -575.1969  -369.1263   667.3694 C5            1 RES     
   23577 C5        -574.0670  -370.0383   666.7979 C5            1 RES     
   23578 C5        -573.5950  -371.2180   667.7027 C5            1 RES     
   23579 C5        -574.7512  -372.2033   668.0421 C5            1 RES     
   23580 C5        -574.4962  -372.9847   669.3445 C5            1 RES     
   23581 C5        -575.8096  -373.5370   669.9389 C5            1 RES     
   23582 C5        -575.5906  -374.0608   671.3697 C5            1 RES     
   23583 C5        -576.9030  -374.3449   672.1222 C5            1 RES     
   23584 C5        -577.7230  -375.4818   671.5225 C5            1 RES     
   23585 C5        -572.3636  -371.8833   667.0059 C5            1 RES     
   23586 C0        -571.3490  -372.9087   667.6439 C0            1 RES     
   23587 C5        -570.5834  -373.5492   666.4060 C5            1 RES     
   23588 C5        -571.0606  -374.9878   666.0146 C5            1 RES     
   23589 C5        -570.3586  -376.1251   666.8275 C5            1 RES     
   23590 C5        -568.8929  -376.4212   666.4316 C5            1 RES     
   23591 C5        -568.1716  -377.4114   667.3641 C5            1 RES     
   23592 C5        -568.6391  -378.8760   667.2644 C5            1 RES     
   23593 C5        -568.4189  -379.5408   665.8883 C5            1 RES     
   23594 C5        -566.9501  -379.5741   665.4533 C5            1 RES     
   23595 C5        -571.0581  -375.2526   664.4721 C5            1 RES     
   23596 C5        -569.8125  -374.8024   663.6657 C5            1 RES     
   23597 C5        -569.8211  -375.3016   662.2030 C5            1 RES     
   23598 C5        -571.0293  -374.8190   661.3780 C5            1 RES     
   23599 C5        -571.0127  -375.3194   659.9195 C5            1 RES     
   23600 C5        -569.8650  -374.7244   659.0806 C5            1 RES     
   23601 C5        -569.8475  -375.2255   657.6252 C5            1 RES     
   23602 C5        -571.0826  -374.8200   656.8194 C5            1 RES     
   23603 H6        -574.2906  -363.2166   669.7835 H6            1 RES     
   23604 H6        -573.4884  -362.2856   671.0893 H6            1 RES     
   23605 H6        -574.6290  -363.6148   671.5196 H6            1 RES     
   23606 H6        -571.9014  -363.9318   670.0879 H6            1 RES     
   23607 H6        -572.2263  -364.2564   671.8282 H6            1 RES     
   23608 H6        -572.1620  -366.3557   670.5844 H6            1 RES     
   23609 H6        -573.8029  -366.0673   671.2648 H6            1 RES     
   23610 H6        -572.9815  -365.5628   668.3125 H6            1 RES     
   23611 H6        -574.6272  -365.3407   669.0302 H6            1 RES     
   23612 H6        -573.0610  -367.9972   668.8399 H6            1 RES     
   23613 H6        -574.6481  -367.7471   669.6867 H6            1 RES     
   23614 H6        -575.7514  -367.0627   667.6774 H6            1 RES     
   23615 H6        -574.2785  -367.2564   666.6666 H6            1 RES     
   23616 H6        -575.6342  -369.4958   668.3188 H6            1 RES     
   23617 H6        -576.0147  -369.1465   666.6180 H6            1 RES     
   23618 H6        -573.1914  -369.3835   666.5887 H6            1 RES     
   23619 H6        -574.3872  -370.4397   665.8120 H6            1 RES     
   23620 H6        -573.3282  -370.7139   668.6045 H6            1 RES     
   23621 H6        -575.6496  -371.5971   668.2496 H6            1 RES     
   23622 H6        -575.0217  -372.8621   667.1888 H6            1 RES     
   23623 H6        -573.7315  -373.7771   669.2006 H6            1 RES     
   23624 H6        -574.1146  -372.2583   670.0923 H6            1 RES     
   23625 H6        -576.2437  -374.3179   669.2785 H6            1 RES     
   23626 H6        -576.5336  -372.6952   670.0130 H6            1 RES     
   23627 H6        -574.9390  -374.9601   671.3562 H6            1 RES     
   23628 H6        -575.0734  -373.2669   671.9540 H6            1 RES     
   23629 H6        -577.5229  -373.4209   672.1516 H6            1 RES     
   23630 H6        -576.6511  -374.6167   673.1703 H6            1 RES     
   23631 H6        -577.1301  -376.4202   671.5207 H6            1 RES     
   23632 H6        -578.0445  -375.2392   670.4893 H6            1 RES     
   23633 H6        -578.6332  -375.6376   672.1408 H6            1 RES     
   23634 H6        -571.7068  -371.0673   666.6302 H6            1 RES     
   23635 H6        -572.8178  -372.3721   666.1124 H6            1 RES     
   23636 H6        -570.7439  -372.8882   665.5284 H6            1 RES     
   23637 H6        -569.4877  -373.5127   666.4792 H6            1 RES     
   23638 H6        -572.1373  -375.0495   666.2951 H6            1 RES     
   23639 H6        -570.4122  -375.8577   667.9051 H6            1 RES     
   23640 H6        -570.9318  -377.0666   666.6881 H6            1 RES     
   23641 H6        -568.8333  -376.8171   665.4030 H6            1 RES     
   23642 H6        -568.3234  -375.4806   666.4583 H6            1 RES     
   23643 H6        -567.0850  -377.3788   667.1386 H6            1 RES     
   23644 H6        -568.2878  -377.0674   668.4116 H6            1 RES     
   23645 H6        -569.7149  -378.9399   667.5289 H6            1 RES     
   23646 H6        -568.0733  -379.4637   668.0206 H6            1 RES     
   23647 H6        -569.0213  -379.0346   665.1065 H6            1 RES     
   23648 H6        -568.7771  -380.5906   665.9572 H6            1 RES     
   23649 H6        -566.3305  -380.0956   666.2136 H6            1 RES     
   23650 H6        -566.8607  -380.1201   664.4904 H6            1 RES     
   23651 H6        -566.5539  -378.5503   665.2945 H6            1 RES     
   23652 H6        -571.9133  -374.6878   664.0442 H6            1 RES     
   23653 H6        -571.2618  -376.3332   664.3075 H6            1 RES     
   23654 H6        -568.8764  -375.1756   664.1048 H6            1 RES     
   23655 H6        -569.7416  -373.6963   663.6694 H6            1 RES     
   23656 H6        -568.8831  -374.9361   661.7366 H6            1 RES     
   23657 H6        -569.7990  -376.4137   662.1988 H6            1 RES     
   23658 H6        -571.0816  -373.7088   661.3880 H6            1 RES     
   23659 H6        -571.9550  -375.2186   661.8421 H6            1 RES     
   23660 H6        -570.9562  -376.4302   659.9082 H6            1 RES     
   23661 H6        -571.9786  -375.0162   659.4650 H6            1 RES     
   23662 H6        -568.8925  -375.0141   659.5273 H6            1 RES     
   23663 H6        -569.9361  -373.6148   659.0856 H6            1 RES     
   23664 H6        -568.9572  -374.7872   657.1235 H6            1 RES     
   23665 H6        -569.7425  -376.3320   657.6084 H6            1 RES     
   23666 H6        -572.0018  -375.2842   657.2299 H6            1 RES     
   23667 H6        -570.9673  -375.1689   655.7713 H6            1 RES     
   23668 H6        -571.1946  -373.7152   656.8143 H6            1 RES     
   23669 C0        -577.3107  -363.9424   674.8719 C0            1 RES     
   23670 C0        -577.5616  -363.7992   676.3734 C0            1 RES     
   23671 C0        -577.2945  -364.9523   677.0324 C0            1 RES     
   23672 S1        -577.4939  -364.8311   678.6899 S1            1 RES     
   23673 C0        -577.9535  -363.1937   678.5920 C0            1 RES     
   23674 C0        -577.8864  -362.7693   677.2540 C0            1 RES     
   23675 C0        -576.7483  -365.9012   676.1247 C0            1 RES     
   23676 C0        -576.6838  -365.3437   674.9366 C0            1 RES     
   23677 C0        -575.8939  -366.1398   674.0158 C0            1 RES     
   23678 C0        -575.4401  -367.2943   674.6353 C0            1 RES     
   23679 S1        -575.9643  -367.4860   676.3513 S1            1 RES     
   23680 H2        -578.0154  -361.7457   676.9735 H2            1 RES     
   23681 H2        -575.5664  -365.8262   673.0395 H2            1 RES     
   23682 N3        -579.4879  -360.3283   680.4958 N3            1 RES     
   23683 C0        -579.1001  -361.1560   679.4840 C0            1 RES     
   23684 C0        -578.3392  -362.3166   679.7299 C0            1 RES     
   23685 C0        -578.0093  -362.5881   681.0681 C0            1 RES     
   23686 N3        -577.2806  -363.6601   681.4791 N3            1 RES     
   23687 S1        -577.1948  -363.4290   683.1144 S1            1 RES     
   23688 N3        -578.0381  -362.0307   683.3626 N3            1 RES     
   23689 C0        -578.4179  -361.7024   682.1009 C0            1 RES     
   23690 C0        -579.1629  -360.5710   681.7951 C0            1 RES     
   23691 H4        -579.4166  -360.9227   678.4827 H4            1 RES     
   23692 C5        -577.3087  -355.3566   679.7413 C5            1 RES     
   23693 C5        -576.5358  -356.5853   679.2595 C5            1 RES     
   23694 C5        -577.4359  -357.7084   678.7143 C5            1 RES     
   23695 C5        -578.2672  -357.3068   677.4799 C5            1 RES     
   23696 C5        -579.0918  -358.5035   676.9751 C5            1 RES     
   23697 C5        -580.0995  -358.1130   675.8847 C5            1 RES     
   23698 C5        -580.9827  -359.3035   675.4409 C5            1 RES     
   23699 C5        -580.3115  -360.2875   674.4328 C5            1 RES     
   23700 C5        -580.1358  -361.7632   674.9068 C5            1 RES     
   23701 C5        -581.4939  -362.4379   675.2582 C5            1 RES     
   23702 C5        -581.3327  -363.6049   676.2502 C5            1 RES     
   23703 C5        -582.6578  -363.9143   676.9792 C5            1 RES     
   23704 C5        -582.4268  -364.8734   678.1610 C5            1 RES     
   23705 C5        -583.6399  -364.9841   679.1020 C5            1 RES     
   23706 C5        -584.8662  -365.6171   678.4540 C5            1 RES     
   23707 C5        -579.3057  -362.5136   673.8149 C5            1 RES     
   23708 C0        -578.6101  -363.9228   673.9503 C0            1 RES     
   23709 C5        -578.2821  -364.3612   672.4573 C5            1 RES     
   23710 C5        -579.2596  -365.4272   671.8586 C5            1 RES     
   23711 C5        -578.8682  -366.9020   672.2038 C5            1 RES     
   23712 C5        -577.6547  -367.4689   671.4300 C5            1 RES     
   23713 C5        -577.1798  -368.8496   671.9183 C5            1 RES     
   23714 C5        -578.1159  -370.0275   671.5873 C5            1 RES     
   23715 C5        -578.3241  -370.2943   670.0808 C5            1 RES     
   23716 C5        -577.0260  -370.6105   669.3307 C5            1 RES     
   23717 C5        -579.5614  -365.2186   670.3372 C5            1 RES     
   23718 C5        -578.3631  -364.9214   669.3990 C5            1 RES     
   23719 C5        -578.7419  -364.9472   667.9008 C5            1 RES     
   23720 C5        -579.8244  -363.9250   667.5053 C5            1 RES     
   23721 C5        -580.1795  -363.9602   666.0051 C5            1 RES     
   23722 C5        -579.0291  -363.4937   665.0920 C5            1 RES     
   23723 C5        -579.3831  -363.5306   663.5944 C5            1 RES     
   23724 C5        -580.5136  -362.5769   663.2051 C5            1 RES     
   23725 H6        -577.8374  -354.8637   678.9004 H6            1 RES     
   23726 H6        -576.5970  -354.6205   680.1723 H6            1 RES     
   23727 H6        -578.0418  -355.6405   680.5259 H6            1 RES     
   23728 H6        -575.8033  -356.2783   678.4830 H6            1 RES     
   23729 H6        -575.9702  -356.9928   680.1266 H6            1 RES     
   23730 H6        -576.7813  -358.5656   678.4454 H6            1 RES     
   23731 H6        -578.1209  -358.0396   679.5259 H6            1 RES     
   23732 H6        -577.6011  -356.9456   676.6661 H6            1 RES     
   23733 H6        -578.9620  -356.4899   677.7676 H6            1 RES     
   23734 H6        -578.4093  -359.3025   676.6143 H6            1 RES     
   23735 H6        -579.6881  -358.8754   677.8312 H6            1 RES     
   23736 H6        -580.7718  -357.3517   676.3391 H6            1 RES     
   23737 H6        -579.6038  -357.6472   675.0059 H6            1 RES     
   23738 H6        -581.3801  -359.7961   676.3511 H6            1 RES     
   23739 H6        -581.8577  -358.8722   674.9097 H6            1 RES     
   23740 H6        -579.3066  -359.8741   674.1906 H6            1 RES     
   23741 H6        -580.8816  -360.2759   673.4786 H6            1 RES     
   23742 H6        -579.5932  -361.6414   675.8174 H6            1 RES     
   23743 H6        -582.1016  -361.6920   675.7984 H6            1 RES     
   23744 H6        -582.0845  -362.7142   674.3581 H6            1 RES     
   23745 H6        -580.9026  -364.5020   675.7567 H6            1 RES     
   23746 H6        -580.6308  -363.2672   677.0411 H6            1 RES     
   23747 H6        -583.4146  -364.3127   676.2700 H6            1 RES     
   23748 H6        -583.0435  -362.9630   677.4090 H6            1 RES     
   23749 H6        -582.1193  -365.8745   677.7914 H6            1 RES     
   23750 H6        -581.5989  -364.4642   678.7825 H6            1 RES     
   23751 H6        -583.9073  -363.9740   679.4853 H6            1 RES     
   23752 H6        -583.3481  -365.6100   679.9731 H6            1 RES     
   23753 H6        -584.6248  -366.6409   678.0996 H6            1 RES     
   23754 H6        -585.2304  -365.0026   677.6057 H6            1 RES     
   23755 H6        -585.6803  -365.6845   679.2075 H6            1 RES     
   23756 H6        -578.4749  -361.8426   673.5022 H6            1 RES     
   23757 H6        -580.0169  -362.5712   672.9580 H6            1 RES     
   23758 H6        -578.3354  -363.4552   671.8177 H6            1 RES     
   23759 H6        -577.2376  -364.6574   672.2883 H6            1 RES     
   23760 H6        -580.2451  -365.2630   672.3521 H6            1 RES     
   23761 H6        -578.6783  -366.9579   673.2976 H6            1 RES     
   23762 H6        -579.7349  -367.5605   671.9812 H6            1 RES     
   23763 H6        -577.8748  -367.5465   670.3512 H6            1 RES     
   23764 H6        -576.8076  -366.7772   671.5466 H6            1 RES     
   23765 H6        -576.1869  -369.0593   671.4679 H6            1 RES     
   23766 H6        -577.0272  -368.8091   673.0157 H6            1 RES     
   23767 H6        -579.1036  -369.8608   672.0649 H6            1 RES     
   23768 H6        -577.6772  -370.9450   672.0378 H6            1 RES     
   23769 H6        -578.8277  -369.4336   669.5952 H6            1 RES     
   23770 H6        -578.9971  -371.1733   669.9814 H6            1 RES     
   23771 H6        -576.5145  -371.4839   669.7884 H6            1 RES     
   23772 H6        -577.2589  -370.8529   668.2722 H6            1 RES     
   23773 H6        -576.3388  -369.7397   669.3303 H6            1 RES     
   23774 H6        -580.2317  -364.3367   670.2571 H6            1 RES     
   23775 H6        -580.1332  -366.1008   669.9750 H6            1 RES     
   23776 H6        -577.5521  -365.6543   669.5163 H6            1 RES     
   23777 H6        -577.9293  -363.9315   669.6449 H6            1 RES     
   23778 H6        -577.8110  -364.7405   667.3337 H6            1 RES     
   23779 H6        -579.0910  -365.9686   667.6322 H6            1 RES     
   23780 H6        -579.5033  -362.8985   667.7859 H6            1 RES     
   23781 H6        -580.7555  -364.1657   668.0595 H6            1 RES     
   23782 H6        -580.4971  -364.9880   665.7223 H6            1 RES     
   23783 H6        -581.0436  -363.2785   665.8636 H6            1 RES     
   23784 H6        -578.1553  -364.1626   665.2279 H6            1 RES     
   23785 H6        -578.7264  -362.4610   665.3720 H6            1 RES     
   23786 H6        -578.4775  -363.2336   663.0216 H6            1 RES     
   23787 H6        -579.6548  -364.5665   663.2965 H6            1 RES     
   23788 H6        -581.4676  -362.8628   663.6921 H6            1 RES     
   23789 H6        -580.6688  -362.6216   662.1063 H6            1 RES     
   23790 H6        -580.2521  -361.5343   663.4836 H6            1 RES     
   23791 C0        -580.1821  -356.1668   684.2243 C0            1 RES     
   23792 C0        -580.1581  -356.4048   685.7345 C0            1 RES     
   23793 C0        -580.1993  -357.7266   686.0284 C0            1 RES     
   23794 S1        -580.1127  -358.0448   687.6694 S1            1 RES     
   23795 C0        -580.0116  -356.3904   688.0627 C0            1 RES     
   23796 C0        -579.9957  -355.6298   686.8811 C0            1 RES     
   23797 C0        -580.1319  -358.4818   684.8252 C0            1 RES     
   23798 C0        -580.0533  -357.6427   683.8170 C0            1 RES     
   23799 C0        -579.7098  -358.3229   682.5821 C0            1 RES     
   23800 C0        -579.5828  -359.6871   682.7963 C0            1 RES     
   23801 S1        -579.8948  -360.2170   684.4928 S1            1 RES     
   23802 H2        -579.8157  -354.5760   686.8840 H2            1 RES     
   23803 H2        -579.4371  -357.8428   681.6581 H2            1 RES     
   23804 N3        -580.2250  -353.8972   690.8784 N3            1 RES     
   23805 C0        -580.2798  -354.4666   689.6407 C0            1 RES     
   23806 C0        -579.9207  -355.8133   689.4308 C0            1 RES     
   23807 C0        -579.5155  -356.5458   690.5589 C0            1 RES     
   23808 N3        -579.1339  -357.8508   690.5332 N3            1 RES     
   23809 S1        -578.7479  -358.1422   692.1146 S1            1 RES     
   23810 N3        -579.0357  -356.6997   692.8659 N3            1 RES     
   23811 C0        -579.4579  -355.9236   691.8347 C0            1 RES     
   23812 C0        -579.8203  -354.5906   691.9775 C0            1 RES     
   23813 H4        -580.6380  -353.8714   688.8194 H4            1 RES     
   23814 C5        -576.6478  -349.7453   690.8349 C5            1 RES     
   23815 C5        -576.4022  -350.9447   689.9181 C5            1 RES     
   23816 C5        -577.6911  -351.5584   689.3430 C5            1 RES     
   23817 C5        -578.5063  -350.5964   688.4564 C5            1 RES     
   23818 C5        -579.7435  -351.3106   687.8852 C5            1 RES     
   23819 C5        -580.7068  -350.3512   687.1719 C5            1 RES     
   23820 C5        -581.9880  -351.0611   686.6730 C5            1 RES     
   23821 C5        -581.8298  -351.8542   685.3385 C5            1 RES     
   23822 C5        -582.0893  -353.3909   685.4027 C5            1 RES     
   23823 C5        -583.5308  -353.7285   685.8834 C5            1 RES     
   23824 C5        -583.6287  -355.1308   686.5128 C5            1 RES     
   23825 C5        -584.8653  -355.2542   687.4287 C5            1 RES     
   23826 C5        -584.8024  -356.5415   688.2704 C5            1 RES     
   23827 C5        -585.8388  -356.5770   689.4080 C5            1 RES     
   23828 C5        -587.2838  -356.6211   688.9234 C5            1 RES     
   23829 C5        -581.7171  -353.9906   684.0076 C5            1 RES     
   23830 C0        -581.5169  -355.5138   683.6499 C0            1 RES     
   23831 C5        -581.5658  -355.5698   682.0614 C5            1 RES     
   23832 C5        -582.9154  -356.0941   681.4663 C5            1 RES     
   23833 C5        -582.9913  -357.6530   681.3602 C5            1 RES     
   23834 C5        -582.1560  -358.2859   680.2225 C5            1 RES     
   23835 C5        -582.1028  -359.8242   680.2549 C5            1 RES     
   23836 C5        -583.4134  -360.5406   679.8776 C5            1 RES     
   23837 C5        -583.9074  -360.2851   678.4372 C5            1 RES     
   23838 C5        -582.9066  -360.7196   677.3614 C5            1 RES     
   23839 C5        -583.3410  -355.3733   680.1439 C5            1 RES     
   23840 C5        -582.2561  -355.1641   679.0559 C5            1 RES     
   23841 C5        -582.8280  -354.6428   677.7181 C5            1 RES     
   23842 C5        -583.5540  -353.2884   677.8266 C5            1 RES     
   23843 C5        -584.1073  -352.7817   676.4794 C5            1 RES     
   23844 C5        -583.0073  -352.4116   675.4655 C5            1 RES     
   23845 C5        -583.5598  -351.9076   674.1200 C5            1 RES     
   23846 C5        -584.3524  -350.6041   674.2292 C5            1 RES     
   23847 H6        -577.0953  -348.9001   690.2738 H6            1 RES     
   23848 H6        -575.6792  -349.3989   691.2543 H6            1 RES     
   23849 H6        -577.3159  -350.0282   691.6759 H6            1 RES     
   23850 H6        -575.7259  -350.6428   689.0904 H6            1 RES     
   23851 H6        -575.8883  -351.7299   690.5158 H6            1 RES     
   23852 H6        -577.4026  -352.4473   688.7409 H6            1 RES     
   23853 H6        -578.3262  -351.9061   690.1876 H6            1 RES     
   23854 H6        -577.8792  -350.2155   687.6210 H6            1 RES     
   23855 H6        -578.8430  -349.7387   689.0759 H6            1 RES     
   23856 H6        -579.4226  -352.1271   687.2036 H6            1 RES     
   23857 H6        -580.3032  -351.7333   688.7425 H6            1 RES     
   23858 H6        -581.0176  -349.5993   687.9310 H6            1 RES     
   23859 H6        -580.2130  -349.8077   686.3379 H6            1 RES     
   23860 H6        -582.3946  -351.6659   687.5086 H6            1 RES     
   23861 H6        -582.7356  -350.2654   686.4684 H6            1 RES     
   23862 H6        -580.7892  -351.6879   684.9796 H6            1 RES     
   23863 H6        -582.4916  -351.4040   684.5671 H6            1 RES     
   23864 H6        -581.4150  -353.6987   686.1702 H6            1 RES     
   23865 H6        -583.7744  -353.0340   686.7055 H6            1 RES     
   23866 H6        -584.2997  -353.5516   685.1005 H6            1 RES     
   23867 H6        -583.5944  -355.9272   685.7396 H6            1 RES     
   23868 H6        -582.7509  -355.2509   687.1818 H6            1 RES     
   23869 H6        -585.8029  -355.1980   686.8352 H6            1 RES     
   23870 H6        -584.8490  -354.4021   688.1442 H6            1 RES     
   23871 H6        -584.8996  -357.4348   687.6178 H6            1 RES     
   23872 H6        -583.8071  -356.5822   688.7675 H6            1 RES     
   23873 H6        -585.6993  -355.6907   690.0667 H6            1 RES     
   23874 H6        -585.6522  -357.4860   690.0200 H6            1 RES     
   23875 H6        -587.4481  -357.5209   688.2947 H6            1 RES     
   23876 H6        -587.5385  -355.7088   688.3466 H6            1 RES     
   23877 H6        -587.9599  -356.6742   689.8038 H6            1 RES     
   23878 H6        -580.7632  -353.5195   683.6813 H6            1 RES     
   23879 H6        -582.5198  -353.5925   683.3438 H6            1 RES     
   23880 H6        -581.4045  -354.5396   681.6800 H6            1 RES     
   23881 H6        -580.7134  -356.0848   681.5970 H6            1 RES     
   23882 H6        -583.7110  -355.8113   682.1934 H6            1 RES     
   23883 H6        -582.6794  -358.0775   682.3390 H6            1 RES     
   23884 H6        -584.0496  -357.9460   681.1911 H6            1 RES     
   23885 H6        -582.5383  -357.9792   679.2335 H6            1 RES     
   23886 H6        -581.1199  -357.9261   680.3035 H6            1 RES     
   23887 H6        -581.3094  -360.1633   679.5562 H6            1 RES     
   23888 H6        -581.7931  -360.1512   681.2680 H6            1 RES     
   23889 H6        -584.2124  -360.2503   680.5908 H6            1 RES     
   23890 H6        -583.2455  -361.6344   679.9906 H6            1 RES     
   23891 H6        -584.1595  -359.2148   678.2923 H6            1 RES     
   23892 H6        -584.8408  -360.8701   678.2895 H6            1 RES     
   23893 H6        -582.6551  -361.7956   677.4752 H6            1 RES     
   23894 H6        -583.3526  -360.5659   676.3561 H6            1 RES     
   23895 H6        -581.9766  -360.1169   677.4096 H6            1 RES     
   23896 H6        -583.6848  -354.3554   680.4251 H6            1 RES     
   23897 H6        -584.2179  -355.9128   679.7241 H6            1 RES     
   23898 H6        -581.7263  -356.0963   678.8131 H6            1 RES     
   23899 H6        -581.4884  -354.4534   679.4220 H6            1 RES     
   23900 H6        -581.9705  -354.5496   677.0202 H6            1 RES     
   23901 H6        -583.5304  -355.3995   677.3041 H6            1 RES     
   23902 H6        -582.8745  -352.5226   678.2594 H6            1 RES     
   23903 H6        -584.4248  -353.4087   678.5044 H6            1 RES     
   23904 H6        -584.7843  -353.5490   676.0434 H6            1 RES     
   23905 H6        -584.7069  -351.8742   676.6994 H6            1 RES     
   23906 H6        -582.3952  -353.3084   675.2409 H6            1 RES     
   23907 H6        -582.3429  -351.6348   675.9033 H6            1 RES     
   23908 H6        -582.6967  -351.7232   673.4436 H6            1 RES     
   23909 H6        -584.1988  -352.6908   673.6575 H6            1 RES     
   23910 H6        -585.2689  -350.7397   674.8379 H6            1 RES     
   23911 H6        -584.6661  -350.2797   673.2143 H6            1 RES     
   23912 H6        -583.7234  -349.8062   674.6772 H6            1 RES     
   23913 C0        -578.9686  -350.9897   695.5335 C0            1 RES     
   23914 C0        -578.8135  -351.6559   696.9010 C0            1 RES     
   23915 C0        -579.2494  -352.9384   696.8795 C0            1 RES     
   23916 S1        -579.0441  -353.7337   698.3379 S1            1 RES     
   23917 C0        -578.3456  -352.3652   699.0736 C0            1 RES     
   23918 C0        -578.2441  -351.3288   698.1300 C0            1 RES     
   23919 C0        -579.6059  -353.2954   695.5499 C0            1 RES     
   23920 C0        -579.3954  -352.2556   694.7745 C0            1 RES     
   23921 C0        -579.4739  -352.6126   693.3702 C0            1 RES     
   23922 C0        -579.7781  -353.9577   693.2255 C0            1 RES     
   23923 S1        -580.0072  -354.8507   694.7768 S1            1 RES     
   23924 H2        -577.7259  -350.4171   698.3382 H2            1 RES     
   23925 H2        -579.1897  -351.9801   692.5469 H2            1 RES     
   23926 N3        -577.3224  -350.8506   702.3673 N3            1 RES     
   23927 C0        -577.7361  -350.9934   701.0758 C0            1 RES     
   23928 C0        -577.8775  -352.2638   700.4820 C0            1 RES     
   23929 C0        -577.5845  -353.3773   701.2866 C0            1 RES     
   23930 N3        -577.6652  -354.6697   700.8715 N3            1 RES     
   23931 S1        -577.1801  -355.5073   702.2124 S1            1 RES     
   23932 N3        -576.8645  -354.3279   703.3248 N3            1 RES     
   23933 C0        -577.1453  -353.1981   702.6257 C0            1 RES     
   23934 C0        -577.0209  -351.9198   703.1538 C0            1 RES     
   23935 H4        -577.9879  -350.1083   700.5187 H4            1 RES     
   23936 C5        -572.6136  -348.0491   702.4900 C5            1 RES     
   23937 C5        -572.9111  -348.9460   701.2874 C5            1 RES     
   23938 C5        -574.3977  -348.9763   700.8903 C5            1 RES     
   23939 C5        -574.9632  -347.6084   700.4600 C5            1 RES     
   23940 C5        -576.4345  -347.7460   700.0316 C5            1 RES     
   23941 C5        -577.1147  -346.3896   699.7980 C5            1 RES     
   23942 C5        -578.6153  -346.5321   699.4490 C5            1 RES     
   23943 C5        -578.9181  -346.9109   697.9658 C5            1 RES     
   23944 C5        -579.6612  -348.2613   697.7260 C5            1 RES     
   23945 C5        -581.0505  -348.3051   698.4266 C5            1 RES     
   23946 C5        -581.5190  -349.7433   698.7165 C5            1 RES     
   23947 C5        -582.5851  -349.7764   699.8325 C5            1 RES     
   23948 C5        -582.8357  -351.2170   700.3139 C5            1 RES     
   23949 C5        -583.6548  -351.2908   701.6151 C5            1 RES     
   23950 C5        -585.0852  -350.7830   701.4720 C5            1 RES     
   23951 C5        -579.7087  -348.5058   696.1825 C5            1 RES     
   23952 C0        -580.0776  -349.8495   695.4433 C0            1 RES     
   23953 C5        -580.3645  -349.4221   693.9387 C5            1 RES     
   23954 C5        -581.8809  -349.3476   693.5574 C5            1 RES     
   23955 C5        -582.4840  -350.7199   693.1101 C5            1 RES     
   23956 C5        -582.0744  -351.2004   691.6979 C5            1 RES     
   23957 C5        -582.5307  -352.6307   691.3574 C5            1 RES     
   23958 C5        -584.0440  -352.8065   691.1283 C5            1 RES     
   23959 C5        -584.6220  -352.0126   689.9368 C5            1 RES     
   23960 C5        -583.9834  -352.3763   688.5923 C5            1 RES     
   23961 C5        -582.2241  -348.1822   692.5708 C5            1 RES     
   23962 C5        -581.2952  -347.9777   691.3461 C5            1 RES     
   23963 C5        -581.8432  -346.9489   690.3313 C5            1 RES     
   23964 C5        -582.0557  -345.5387   690.9138 C5            1 RES     
   23965 C5        -582.5926  -344.5257   689.8824 C5            1 RES     
   23966 C5        -581.5858  -344.2001   688.7620 C5            1 RES     
   23967 C5        -582.1226  -343.1904   687.7315 C5            1 RES     
   23968 C5        -582.4140  -341.8082   688.3178 C5            1 RES     
   23969 H6        -572.8292  -346.9866   702.2574 H6            1 RES     
   23970 H6        -571.5363  -348.1275   702.7494 H6            1 RES     
   23971 H6        -573.2128  -348.3659   703.3699 H6            1 RES     
   23972 H6        -572.2961  -348.6181   700.4226 H6            1 RES     
   23973 H6        -572.6085  -349.9831   701.5535 H6            1 RES     
   23974 H6        -574.5081  -349.6935   700.0482 H6            1 RES     
   23975 H6        -574.9871  -349.3625   701.7511 H6            1 RES     
   23976 H6        -574.3689  -347.1921   699.6175 H6            1 RES     
   23977 H6        -574.9057  -346.9110   701.3221 H6            1 RES     
   23978 H6        -576.5017  -348.3831   699.1239 H6            1 RES     
   23979 H6        -576.9766  -348.2259   700.8699 H6            1 RES     
   23980 H6        -577.0486  -345.8372   700.7617 H6            1 RES     
   23981 H6        -576.5906  -345.7876   699.0248 H6            1 RES     
   23982 H6        -579.0783  -347.2150   700.1896 H6            1 RES     
   23983 H6        -579.0773  -345.5348   699.6097 H6            1 RES     
   23984 H6        -577.9425  -346.9466   697.4307 H6            1 RES     
   23985 H6        -579.4942  -346.0876   697.4903 H6            1 RES     
   23986 H6        -579.0268  -348.9567   698.2283 H6            1 RES     
   23987 H6        -580.9320  -347.8424   699.4213 H6            1 RES     
   23988 H6        -581.8188  -347.6981   697.9005 H6            1 RES     
   23989 H6        -581.8598  -350.2546   697.7914 H6            1 RES     
   23990 H6        -580.6463  -350.2957   699.1235 H6            1 RES     
   23991 H6        -583.5243  -349.2878   699.4955 H6            1 RES     
   23992 H6        -582.1868  -349.2117   700.7047 H6            1 RES     
   23993 H6        -583.3144  -351.8151   699.5099 H6            1 RES     
   23994 H6        -581.8511  -351.6795   700.5504 H6            1 RES     
   23995 H6        -583.1381  -350.7128   702.4137 H6            1 RES     
   23996 H6        -583.6966  -352.3532   701.9397 H6            1 RES     
   23997 H6        -585.6253  -351.3753   700.7041 H6            1 RES     
   23998 H6        -585.1010  -349.7089   701.1968 H6            1 RES     
   23999 H6        -585.6102  -350.8991   702.4446 H6            1 RES     
   24000 H6        -578.7082  -348.2480   695.7690 H6            1 RES     
   24001 H6        -580.4184  -347.7219   695.8284 H6            1 RES     
   24002 H6        -579.9256  -348.4143   693.7822 H6            1 RES     
   24003 H6        -579.8054  -349.9965   693.1872 H6            1 RES     
   24004 H6        -582.4273  -349.0782   694.4905 H6            1 RES     
   24005 H6        -582.1967  -351.4821   693.8665 H6            1 RES     
   24006 H6        -583.5922  -350.6406   693.1201 H6            1 RES     
   24007 H6        -582.4679  -350.5232   690.9202 H6            1 RES     
   24008 H6        -580.9770  -351.1866   691.6252 H6            1 RES     
   24009 H6        -582.0011  -352.9593   690.4385 H6            1 RES     
   24010 H6        -582.2084  -353.3132   692.1695 H6            1 RES     
   24011 H6        -584.5930  -352.5253   692.0507 H6            1 RES     
   24012 H6        -584.2346  -353.8865   690.9420 H6            1 RES     
   24013 H6        -584.5222  -350.9211   690.1066 H6            1 RES     
   24014 H6        -585.7076  -352.2416   689.8708 H6            1 RES     
   24015 H6        -584.0900  -353.4638   688.3920 H6            1 RES     
   24016 H6        -584.4895  -351.8163   687.7778 H6            1 RES     
   24017 H6        -582.9091  -352.1011   688.5692 H6            1 RES     
   24018 H6        -582.1676  -347.2375   693.1519 H6            1 RES     
   24019 H6        -583.2801  -348.3058   692.2452 H6            1 RES     
   24020 H6        -581.1444  -348.9075   690.7794 H6            1 RES     
   24021 H6        -580.2918  -347.6511   691.6854 H6            1 RES     
   24022 H6        -581.1103  -346.9007   689.4998 H6            1 RES     
   24023 H6        -582.8076  -347.3218   689.9212 H6            1 RES     
   24024 H6        -581.1070  -345.1565   691.3489 H6            1 RES     
   24025 H6        -582.8130  -345.6021   691.7229 H6            1 RES     
   24026 H6        -583.5399  -344.9091   689.4433 H6            1 RES     
   24027 H6        -582.8199  -343.5922   690.4375 H6            1 RES     
   24028 H6        -581.3440  -345.1261   688.2023 H6            1 RES     
   24029 H6        -580.6469  -343.8051   689.2079 H6            1 RES     
   24030 H6        -581.3511  -343.0666   686.9404 H6            1 RES     
   24031 H6        -583.0434  -343.5911   687.2551 H6            1 RES     
   24032 H6        -583.2286  -341.8525   689.0684 H6            1 RES     
   24033 H6        -582.7412  -341.1265   687.5043 H6            1 RES     
   24034 H6        -581.4996  -341.3869   688.7862 H6            1 RES     
   24035 C0        -574.5327  -349.9087   707.1665 C0            1 RES     
   24036 C0        -574.4174  -350.9614   708.2694 C0            1 RES     
   24037 C0        -575.2527  -352.0046   708.0478 C0            1 RES     
   24038 S1        -575.1208  -353.2161   709.1953 S1            1 RES     
   24039 C0        -573.9118  -352.3771   710.0534 C0            1 RES     
   24040 C0        -573.6054  -351.1822   709.3801 C0            1 RES     
   24041 C0        -575.8902  -351.8416   706.7870 C0            1 RES     
   24042 C0        -575.4575  -350.7236   706.2491 C0            1 RES     
   24043 C0        -575.8460  -350.6168   704.8550 C0            1 RES     
   24044 C0        -576.5966  -351.7183   704.4726 C0            1 RES     
   24045 S1        -576.8892  -352.9240   705.7829 S1            1 RES     
   24046 H2        -572.7902  -350.5556   709.6732 H2            1 RES     
   24047 H2        -575.4864  -349.8778   704.1600 H2            1 RES     
   24048 N3        -571.9928  -352.2443   713.2922 N3            1 RES     
   24049 C0        -572.6071  -351.8806   712.1304 C0            1 RES     
   24050 C0        -573.2440  -352.8281   711.3039 C0            1 RES     
   24051 C0        -573.2274  -354.1636   711.7389 C0            1 RES     
   24052 N3        -573.7898  -355.2006   711.0626 N3            1 RES     
   24053 S1        -573.4273  -356.4950   712.0260 S1            1 RES     
   24054 N3        -572.5855  -355.8313   713.2825 N3            1 RES     
   24055 C0        -572.5705  -354.5153   712.9485 C0            1 RES     
   24056 C0        -571.9561  -353.5364   713.7185 C0            1 RES     
   24057 H4        -572.6264  -350.8378   711.8669 H4            1 RES     
   24058 C5        -566.6532  -351.0439   713.0018 C5            1 RES     
   24059 C5        -567.3971  -351.4281   711.7218 C5            1 RES     
   24060 C5        -568.8495  -350.9215   711.6741 C5            1 RES     
   24061 C5        -568.9834  -349.3863   711.7139 C5            1 RES     
   24062 C5        -570.4615  -348.9731   711.6079 C5            1 RES     
   24063 C5        -570.6786  -347.4738   711.8570 C5            1 RES     
   24064 C5        -572.1747  -347.0799   711.8316 C5            1 RES     
   24065 C5        -572.7909  -346.9069   710.4084 C5            1 RES     
   24066 C5        -573.9659  -347.8619   710.0336 C5            1 RES     
   24067 C5        -575.1782  -347.7164   710.9990 C5            1 RES     
   24068 C5        -576.0519  -348.9839   711.0429 C5            1 RES     
   24069 C5        -576.9009  -349.0410   712.3310 C5            1 RES     
   24070 C5        -577.5453  -350.4280   712.5063 C5            1 RES     
   24071 C5        -578.1514  -350.6459   713.9044 C5            1 RES     
   24072 C5        -579.3374  -349.7377   714.2098 C5            1 RES     
   24073 C5        -574.3077  -347.6204   708.5272 C5            1 RES     
   24074 C0        -575.2015  -348.5284   707.5973 C0            1 RES     
   24075 C5        -575.5382  -347.6168   706.3386 C5            1 RES     
   24076 C5        -576.9815  -347.0108   706.3369 C5            1 RES     
   24077 C5        -578.0623  -347.9645   705.7291 C5            1 RES     
   24078 C5        -578.0376  -348.1056   704.1889 C5            1 RES     
   24079 C5        -578.9858  -349.1848   703.6355 C5            1 RES     
   24080 C5        -580.4879  -348.8530   703.7187 C5            1 RES     
   24081 C5        -580.9306  -347.6162   702.9073 C5            1 RES     
   24082 C5        -580.6442  -347.7347   701.4067 C5            1 RES     
   24083 C5        -577.0532  -345.5605   705.7531 C5            1 RES     
   24084 C5        -576.2905  -345.2763   704.4332 C5            1 RES     
   24085 C5        -576.6025  -343.8850   703.8371 C5            1 RES     
   24086 C5        -576.2510  -342.7068   704.7653 C5            1 RES     
   24087 C5        -576.5603  -341.3283   704.1472 C5            1 RES     
   24088 C5        -575.6701  -340.9860   702.9367 C5            1 RES     
   24089 C5        -575.9802  -339.6106   702.3187 C5            1 RES     
   24090 C5        -575.7111  -338.4370   703.2617 C5            1 RES     
   24091 H6        -566.5343  -349.9441   713.0785 H6            1 RES     
   24092 H6        -565.6379  -351.4944   712.9861 H6            1 RES     
   24093 H6        -567.1940  -351.4224   713.8951 H6            1 RES     
   24094 H6        -566.8357  -351.0482   710.8418 H6            1 RES     
   24095 H6        -567.4216  -352.5389   711.6631 H6            1 RES     
   24096 H6        -569.3086  -351.2995   710.7349 H6            1 RES     
   24097 H6        -569.4069  -351.3606   712.5308 H6            1 RES     
   24098 H6        -568.4090  -348.9264   710.8803 H6            1 RES     
   24099 H6        -568.5774  -349.0175   712.6793 H6            1 RES     
   24100 H6        -570.8630  -349.2708   710.6157 H6            1 RES     
   24101 H6        -571.0090  -349.5045   712.4109 H6            1 RES     
   24102 H6        -570.2985  -347.2694   712.8826 H6            1 RES     
   24103 H6        -570.0984  -346.8447   711.1482 H6            1 RES     
   24104 H6        -572.7294  -347.7906   712.4769 H6            1 RES     
   24105 H6        -572.2521  -346.0855   712.3206 H6            1 RES     
   24106 H6        -571.9677  -347.0573   709.6742 H6            1 RES     
   24107 H6        -573.1216  -345.8534   710.2807 H6            1 RES     
   24108 H6        -573.5344  -348.8230   710.2033 H6            1 RES     
   24109 H6        -574.7746  -347.6179   712.0213 H6            1 RES     
   24110 H6        -575.7672  -346.7916   710.8163 H6            1 RES     
   24111 H6        -576.6692  -349.0847   710.1252 H6            1 RES     
   24112 H6        -575.3641  -349.8533   711.1022 H6            1 RES     
   24113 H6        -577.6621  -348.2317   712.3379 H6            1 RES     
   24114 H6        -576.2196  -348.8920   713.1981 H6            1 RES     
   24115 H6        -578.3031  -350.6047   711.7139 H6            1 RES     
   24116 H6        -576.7472  -351.1967   712.4001 H6            1 RES     
   24117 H6        -577.3657  -350.4966   714.6784 H6            1 RES     
   24118 H6        -578.4976  -351.7001   713.9727 H6            1 RES     
   24119 H6        -580.1454  -349.9024   713.4668 H6            1 RES     
   24120 H6        -579.0341  -348.6710   714.2039 H6            1 RES     
   24121 H6        -579.7292  -349.9808   715.2209 H6            1 RES     
   24122 H6        -573.3468  -347.5451   707.9710 H6            1 RES     
   24123 H6        -574.7592  -346.6008   708.5352 H6            1 RES     
   24124 H6        -574.8162  -346.7734   706.3270 H6            1 RES     
   24125 H6        -575.3127  -348.0791   705.3676 H6            1 RES     
   24126 H6        -577.2709  -346.8839   707.4055 H6            1 RES     
   24127 H6        -577.9412  -348.9632   706.2019 H6            1 RES     
   24128 H6        -579.0683  -347.5834   706.0067 H6            1 RES     
   24129 H6        -578.2890  -347.1484   703.7000 H6            1 RES     
   24130 H6        -577.0196  -348.3803   703.8761 H6            1 RES     
   24131 H6        -578.7296  -349.3652   702.5703 H6            1 RES     
   24132 H6        -578.7977  -350.1369   704.1716 H6            1 RES     
   24133 H6        -580.7774  -348.7114   704.7805 H6            1 RES     
   24134 H6        -581.0502  -349.7319   703.3331 H6            1 RES     
   24135 H6        -580.4515  -346.6963   703.3003 H6            1 RES     
   24136 H6        -582.0285  -347.5009   703.0359 H6            1 RES     
   24137 H6        -581.1326  -348.6400   700.9873 H6            1 RES     
   24138 H6        -581.0446  -346.8422   700.8810 H6            1 RES     
   24139 H6        -579.5539  -347.7785   701.2071 H6            1 RES     
   24140 H6        -576.6054  -344.8829   706.5107 H6            1 RES     
   24141 H6        -578.1249  -345.2812   705.6542 H6            1 RES     
   24142 H6        -576.5379  -346.0027   703.6461 H6            1 RES     
   24143 H6        -575.1985  -345.3593   704.6045 H6            1 RES     
   24144 H6        -576.0194  -343.8037   702.8967 H6            1 RES     
   24145 H6        -577.6834  -343.8347   703.5793 H6            1 RES     
   24146 H6        -575.1782  -342.7517   705.0524 H6            1 RES     
   24147 H6        -576.8650  -342.7887   705.6864 H6            1 RES     
   24148 H6        -577.6327  -341.2838   703.8557 H6            1 RES     
   24149 H6        -576.3846  -340.5736   704.9415 H6            1 RES     
   24150 H6        -575.8303  -341.7365   702.1365 H6            1 RES     
   24151 H6        -574.6006  -341.0195   703.2392 H6            1 RES     
   24152 H6        -575.3304  -339.4829   701.4255 H6            1 RES     
   24153 H6        -577.0390  -339.5786   701.9819 H6            1 RES     
   24154 H6        -576.3805  -338.4681   704.1448 H6            1 RES     
   24155 H6        -575.9042  -337.4839   702.7251 H6            1 RES     
   24156 H6        -574.6526  -338.4462   703.5972 H6            1 RES     
   24157 C0        -568.4050  -353.5723   717.4232 C0            1 RES     
   24158 C0        -568.4922  -354.8896   718.1947 C0            1 RES     
   24159 C0        -569.6487  -355.5433   717.9296 C0            1 RES     
   24160 S1        -569.7668  -357.0234   718.7023 S1            1 RES     
   24161 C0        -568.2402  -356.8477   719.4376 C0            1 RES     
   24162 C0        -567.6522  -355.6448   719.0107 C0            1 RES     
   24163 C0        -570.3660  -354.8461   716.9187 C0            1 RES     
   24164 C0        -569.6667  -353.7886   716.5734 C0            1 RES     
   24165 C0        -570.1892  -353.1738   715.3673 C0            1 RES     
   24166 C0        -571.3085  -353.8575   714.9174 C0            1 RES     
   24167 S1        -571.7979  -355.2606   715.9411 S1            1 RES     
   24168 H2        -566.6428  -355.3871   719.2507 H2            1 RES     
   24169 H2        -569.7059  -352.3960   714.8015 H2            1 RES     
   24170 N3        -565.9520  -358.2136   722.0999 N3            1 RES     
   24171 C0        -566.5672  -357.3685   721.2243 C0            1 RES     
   24172 C0        -567.5916  -357.8135   720.3646 C0            1 RES     
   24173 C0        -567.9584  -359.1662   720.4605 C0            1 RES     
   24174 N3        -568.9221  -359.7578   719.7053 N3            1 RES     
   24175 S1        -568.8784  -361.3246   720.2326 S1            1 RES     
   24176 N3        -567.6967  -361.3225   721.3865 N3            1 RES     
   24177 C0        -567.2928  -360.0262   721.3745 C0            1 RES     
   24178 C0        -566.2868  -359.5296   722.1930 C0            1 RES     
   24179 H4        -566.2760  -356.3330   721.2229 H4            1 RES     
   24180 C5        -560.6133  -358.5331   720.9027 C5            1 RES     
   24181 C5        -561.6141  -358.3004   719.7698 C5            1 RES     
   24182 C5        -562.8076  -357.4150   720.1702 C5            1 RES     
   24183 C5        -562.4174  -355.9861   720.5965 C5            1 RES     
   24184 C5        -563.6740  -355.1617   720.9258 C5            1 RES     
   24185 C5        -563.3439  -353.8032   721.5604 C5            1 RES     
   24186 C5        -564.6124  -353.0151   721.9654 C5            1 RES     
   24187 C5        -565.3293  -352.2673   720.7984 C5            1 RES     
   24188 C5        -566.7949  -352.7001   720.4855 C5            1 RES     
   24189 C5        -567.7421  -352.5086   721.7058 C5            1 RES     
   24190 C5        -568.9717  -353.4343   721.6481 C5            1 RES     
   24191 C5        -569.6020  -353.6246   723.0444 C5            1 RES     
   24192 C5        -570.6389  -354.7624   723.0315 C5            1 RES     
   24193 C5        -571.0806  -355.2002   724.4395 C5            1 RES     
   24194 C5        -571.8426  -354.1260   725.2077 C5            1 RES     
   24195 C5        -567.2448  -351.9424   719.1941 C5            1 RES     
   24196 C0        -568.5103  -352.2488   718.3038 C0            1 RES     
   24197 C5        -568.6983  -350.9527   717.4019 C5            1 RES     
   24198 C5        -569.8438  -349.9924   717.8670 C5            1 RES     
   24199 C5        -571.2537  -350.3823   717.3128 C5            1 RES     
   24200 C5        -571.4935  -350.0674   715.8174 C5            1 RES     
   24201 C5        -572.8138  -350.6253   715.2555 C5            1 RES     
   24202 C5        -574.0932  -349.9239   715.7501 C5            1 RES     
   24203 C5        -574.2095  -348.4316   715.3711 C5            1 RES     
   24204 C5        -574.1920  -348.1814   713.8596 C5            1 RES     
   24205 C5        -569.5111  -348.4759   717.6696 C5            1 RES     
   24206 C5        -568.8904  -348.0445   716.3157 C5            1 RES     
   24207 C5        -568.8033  -346.5107   716.1471 C5            1 RES     
   24208 C5        -567.9543  -345.8043   717.2210 C5            1 RES     
   24209 C5        -567.8718  -344.2766   717.0280 C5            1 RES     
   24210 C5        -567.0976  -343.8598   715.7624 C5            1 RES     
   24211 C5        -567.0170  -342.3348   715.5690 C5            1 RES     
   24212 C5        -566.2442  -341.6138   716.6744 C5            1 RES     
   24213 H6        -560.1266  -357.5839   721.2053 H6            1 RES     
   24214 H6        -559.8179  -359.2257   720.5539 H6            1 RES     
   24215 H6        -561.1181  -358.9884   721.7811 H6            1 RES     
   24216 H6        -561.0878  -357.8536   718.8997 H6            1 RES     
   24217 H6        -562.0140  -359.2916   719.4604 H6            1 RES     
   24218 H6        -563.4930  -357.3567   719.2969 H6            1 RES     
   24219 H6        -563.3532  -357.9104   721.0035 H6            1 RES     
   24220 H6        -561.8458  -355.4833   719.7860 H6            1 RES     
   24221 H6        -561.7809  -356.0456   721.5044 H6            1 RES     
   24222 H6        -564.2864  -355.0305   720.0081 H6            1 RES     
   24223 H6        -564.2485  -355.7284   721.6845 H6            1 RES     
   24224 H6        -562.7777  -354.0235   722.4927 H6            1 RES     
   24225 H6        -562.6932  -353.1840   720.9062 H6            1 RES     
   24226 H6        -565.2752  -353.6976   722.5348 H6            1 RES     
   24227 H6        -564.2860  -352.2277   722.6776 H6            1 RES     
   24228 H6        -564.7142  -352.4214   719.8834 H6            1 RES     
   24229 H6        -565.3061  -351.1740   720.9982 H6            1 RES     
   24230 H6        -566.6876  -353.7494   720.3245 H6            1 RES     
   24231 H6        -567.1896  -352.8313   722.6049 H6            1 RES     
   24232 H6        -568.0103  -351.4444   721.8816 H6            1 RES     
   24233 H6        -569.7096  -353.0842   720.8956 H6            1 RES     
   24234 H6        -568.6103  -354.4396   721.3462 H6            1 RES     
   24235 H6        -570.0425  -352.6729   723.4114 H6            1 RES     
   24236 H6        -568.7955  -353.9338   723.7460 H6            1 RES     
   24237 H6        -571.5155  -354.4789   722.4114 H6            1 RES     
   24238 H6        -570.1644  -355.6583   722.5717 H6            1 RES     
   24239 H6        -570.1896  -355.5112   725.0295 H6            1 RES     
   24240 H6        -571.7438  -356.0864   724.3359 H6            1 RES     
   24241 H6        -572.7553  -353.8320   724.6485 H6            1 RES     
   24242 H6        -571.2065  -353.2347   725.3829 H6            1 RES     
   24243 H6        -572.1470  -354.5339   726.1956 H6            1 RES     
   24244 H6        -566.4014  -351.9810   718.4691 H6            1 RES     
   24245 H6        -567.3265  -350.8859   719.5415 H6            1 RES     
   24246 H6        -567.7465  -350.3814   717.4253 H6            1 RES     
   24247 H6        -568.7775  -351.1544   716.3247 H6            1 RES     
   24248 H6        -569.9219  -350.1078   718.9726 H6            1 RES     
   24249 H6        -571.4060  -351.4675   717.4994 H6            1 RES     
   24250 H6        -572.0267  -349.8323   717.8910 H6            1 RES     
   24251 H6        -571.4788  -348.9789   715.6352 H6            1 RES     
   24252 H6        -570.6789  -350.5132   715.2281 H6            1 RES     
   24253 H6        -572.7840  -350.5504   714.1481 H6            1 RES     
   24254 H6        -572.8791  -351.7051   715.4979 H6            1 RES     
   24255 H6        -574.1674  -350.0239   716.8527 H6            1 RES     
   24256 H6        -574.9635  -350.4563   715.3067 H6            1 RES     
   24257 H6        -573.4021  -347.8407   715.8498 H6            1 RES     
   24258 H6        -575.1773  -348.0552   715.7670 H6            1 RES     
   24259 H6        -575.0069  -348.7487   713.3614 H6            1 RES     
   24260 H6        -574.3430  -347.0992   713.6610 H6            1 RES     
   24261 H6        -573.2175  -348.4696   713.4150 H6            1 RES     
   24262 H6        -568.7623  -348.2043   718.4436 H6            1 RES     
   24263 H6        -570.4321  -347.8904   717.8827 H6            1 RES     
   24264 H6        -569.4727  -348.4084   715.4573 H6            1 RES     
   24265 H6        -567.8753  -348.4774   716.2124 H6            1 RES     
   24266 H6        -568.3642  -346.3252   715.1452 H6            1 RES     
   24267 H6        -569.8311  -346.0853   716.1585 H6            1 RES     
   24268 H6        -566.9281  -346.2310   717.2405 H6            1 RES     
   24269 H6        -568.4251  -345.9761   718.2115 H6            1 RES     
   24270 H6        -568.8984  -343.8490   717.0043 H6            1 RES     
   24271 H6        -567.3462  -343.8687   717.9161 H6            1 RES     
   24272 H6        -567.6083  -344.2666   714.8664 H6            1 RES     
   24273 H6        -566.0686  -344.2797   715.7998 H6            1 RES     
   24274 H6        -566.4937  -342.1394   714.6075 H6            1 RES     
   24275 H6        -568.0413  -341.9092   715.4963 H6            1 RES     
   24276 H6        -566.7552  -341.7124   717.6533 H6            1 RES     
   24277 H6        -566.1832  -340.5314   716.4329 H6            1 RES     
   24278 H6        -565.2129  -342.0180   716.7512 H6            1 RES     
   24279 C0        -562.4667  -361.6451   724.8890 C0            1 RES     
   24280 C0        -562.8770  -363.0503   725.3307 C0            1 RES     
   24281 C0        -564.2100  -363.2450   725.1878 C0            1 RES     
   24282 S1        -564.7031  -364.7906   725.5996 S1            1 RES     
   24283 C0        -563.1176  -365.2744   725.9923 C0            1 RES     
   24284 C0        -562.2298  -364.2155   725.7370 C0            1 RES     
   24285 C0        -564.7895  -362.1103   724.5560 C0            1 RES     
   24286 C0        -563.8346  -361.2394   724.3189 C0            1 RES     
   24287 C0        -564.2870  -360.1776   723.4393 C0            1 RES     
   24288 C0        -565.6212  -360.3561   723.1062 C0            1 RES     
   24289 S1        -566.3999  -361.8004   723.8571 S1            1 RES     
   24290 H2        -561.1689  -364.3341   725.7968 H2            1 RES     
   24291 H2        -563.6574  -359.4371   722.9769 H2            1 RES     
   24292 N3        -561.0631  -367.9454   727.6760 N3            1 RES     
   24293 C0        -561.4793  -366.7438   727.1838 C0            1 RES     
   24294 C0        -562.7032  -366.6109   726.4975 C0            1 RES     
   24295 C0        -563.4808  -367.7720   726.3548 C0            1 RES     
   24296 N3        -564.6821  -367.8208   725.7194 N3            1 RES     
   24297 S1        -565.0874  -369.4193   725.8424 S1            1 RES     
   24298 N3        -563.8226  -370.0874   726.6682 N3            1 RES     
   24299 C0        -563.0172  -369.0127   726.8686 C0            1 RES     
   24300 C0        -561.7992  -369.0812   727.5322 C0            1 RES     
   24301 H4        -560.8642  -365.8788   727.3587 H4            1 RES     
   24302 C5        -556.3569  -369.3882   725.2664 C5            1 RES     
   24303 C5        -557.3722  -368.5626   724.4746 C5            1 RES     
   24304 C5        -558.1355  -367.5350   725.3289 C5            1 RES     
   24305 C5        -557.2374  -366.4635   725.9781 C5            1 RES     
   24306 C5        -558.0898  -365.4531   726.7651 C5            1 RES     
   24307 C5        -557.2421  -364.4900   727.6083 C5            1 RES     
   24308 C5        -558.1070  -363.5315   728.4612 C5            1 RES     
   24309 C5        -558.6912  -362.3050   727.6935 C5            1 RES     
   24310 C5        -560.2458  -362.1969   727.6266 C5            1 RES     
   24311 C5        -560.8949  -362.1126   729.0390 C5            1 RES     
   24312 C5        -562.3572  -362.5960   729.0452 C5            1 RES     
   24313 C5        -562.8126  -363.0013   730.4634 C5            1 RES     
   24314 C5        -564.1592  -363.7458   730.4191 C5            1 RES     
   24315 C5        -564.5192  -364.4338   731.7482 C5            1 RES     
   24316 C5        -564.7658  -363.4625   732.8973 C5            1 RES     
   24317 C5        -560.5951  -360.9999   726.6833 C5            1 RES     
   24318 C0        -562.0022  -360.6636   726.0547 C0            1 RES     
   24319 C5        -561.8738  -359.1622   725.5467 C5            1 RES     
   24320 C5        -562.5584  -358.0986   726.4689 C5            1 RES     
   24321 C5        -564.0808  -357.8963   726.1713 C5            1 RES     
   24322 C5        -564.4096  -357.1035   724.8844 C5            1 RES     
   24323 C5        -565.9052  -357.0776   724.5200 C5            1 RES     
   24324 C5        -566.7966  -356.2216   725.4398 C5            1 RES     
   24325 C5        -566.4629  -354.7142   725.4561 C5            1 RES     
   24326 C5        -566.5754  -354.0481   724.0808 C5            1 RES     
   24327 C5        -561.7725  -356.7484   726.5615 C5            1 RES     
   24328 C5        -561.2401  -356.1324   725.2418 C5            1 RES     
   24329 C5        -560.6735  -354.7058   725.4209 C5            1 RES     
   24330 C5        -559.4964  -354.6132   726.4104 C5            1 RES     
   24331 C5        -558.9395  -353.1837   726.5661 C5            1 RES     
   24332 C5        -558.2564  -352.6501   725.2919 C5            1 RES     
   24333 C5        -557.7022  -351.2224   725.4469 C5            1 RES     
   24334 C5        -556.5870  -351.1042   726.4869 C5            1 RES     
   24335 H6        -555.5454  -368.7461   725.6647 H6            1 RES     
   24336 H6        -555.8937  -370.1429   724.5956 H6            1 RES     
   24337 H6        -556.8558  -369.9194   726.1046 H6            1 RES     
   24338 H6        -556.8549  -368.0477   723.6374 H6            1 RES     
   24339 H6        -558.1175  -369.2655   724.0405 H6            1 RES     
   24340 H6        -558.8779  -367.0334   724.6710 H6            1 RES     
   24341 H6        -558.6920  -368.0782   726.1244 H6            1 RES     
   24342 H6        -556.6510  -365.9275   725.2001 H6            1 RES     
   24343 H6        -556.5362  -366.9625   726.6795 H6            1 RES     
   24344 H6        -558.7462  -364.8924   726.0657 H6            1 RES     
   24345 H6        -558.7075  -366.0314   727.4798 H6            1 RES     
   24346 H6        -556.6563  -365.1233   728.3111 H6            1 RES     
   24347 H6        -556.5213  -363.9156   726.9875 H6            1 RES     
   24348 H6        -558.8720  -364.1355   728.9897 H6            1 RES     
   24349 H6        -557.4413  -363.1120   729.2452 H6            1 RES     
   24350 H6        -558.2969  -362.3510   726.6535 H6            1 RES     
   24351 H6        -558.2787  -361.3708   728.1326 H6            1 RES     
   24352 H6        -560.5166  -363.1389   727.2050 H6            1 RES     
   24353 H6        -560.3605  -362.8259   729.6895 H6            1 RES     
   24354 H6        -560.7671  -361.1160   729.5142 H6            1 RES     
   24355 H6        -563.0348  -361.8483   728.5814 H6            1 RES     
   24356 H6        -562.3960  -363.5281   728.4434 H6            1 RES     
   24357 H6        -562.8561  -362.1150   731.1321 H6            1 RES     
   24358 H6        -562.0644  -363.7160   730.8732 H6            1 RES     
   24359 H6        -564.9698  -363.0588   730.0962 H6            1 RES     
   24360 H6        -564.0784  -364.5635   729.6681 H6            1 RES     
   24361 H6        -563.7085  -365.1412   732.0329 H6            1 RES     
   24362 H6        -565.4465  -365.0269   731.5926 H6            1 RES     
   24363 H6        -565.5979  -362.7735   732.6426 H6            1 RES     
   24364 H6        -563.8520  -362.8781   733.1280 H6            1 RES     
   24365 H6        -565.0466  -364.0388   733.8051 H6            1 RES     
   24366 H6        -559.9229  -361.0602   725.7986 H6            1 RES     
   24367 H6        -560.2720  -360.1131   727.2771 H6            1 RES     
   24368 H6        -560.7931  -358.9146   725.4879 H6            1 RES     
   24369 H6        -562.1657  -359.0091   724.4985 H6            1 RES     
   24370 H6        -562.5146  -358.5056   727.5053 H6            1 RES     
   24371 H6        -564.5568  -358.8999   726.1287 H6            1 RES     
   24372 H6        -564.5383  -357.3455   727.0208 H6            1 RES     
   24373 H6        -564.0602  -356.0595   724.9629 H6            1 RES     
   24374 H6        -563.8803  -357.5676   724.0393 H6            1 RES     
   24375 H6        -566.0078  -356.6936   723.4833 H6            1 RES     
   24376 H6        -566.2906  -358.1171   724.5118 H6            1 RES     
   24377 H6        -566.7443  -356.6148   726.4762 H6            1 RES     
   24378 H6        -567.8473  -356.3337   725.0922 H6            1 RES     
   24379 H6        -565.4464  -354.5412   725.8650 H6            1 RES     
   24380 H6        -567.1852  -354.2138   726.1365 H6            1 RES     
   24381 H6        -567.5937  -354.1916   723.6607 H6            1 RES     
   24382 H6        -566.3849  -352.9584   724.1797 H6            1 RES     
   24383 H6        -565.8243  -354.4554   723.3734 H6            1 RES     
   24384 H6        -560.8753  -356.9372   727.1884 H6            1 RES     
   24385 H6        -562.4073  -356.0166   727.1073 H6            1 RES     
   24386 H6        -562.0244  -356.0501   724.4760 H6            1 RES     
   24387 H6        -560.4514  -356.7833   724.8143 H6            1 RES     
   24388 H6        -560.3427  -354.3665   724.4176 H6            1 RES     
   24389 H6        -561.4894  -354.0313   725.7625 H6            1 RES     
   24390 H6        -558.6781  -355.2974   726.0980 H6            1 RES     
   24391 H6        -559.8537  -354.9276   727.4132 H6            1 RES     
   24392 H6        -559.7585  -352.4973   726.8748 H6            1 RES     
   24393 H6        -558.1892  -353.2185   727.3829 H6            1 RES     
   24394 H6        -558.9935  -352.6160   724.4644 H6            1 RES     
   24395 H6        -557.4306  -353.3341   724.9974 H6            1 RES     
   24396 H6        -557.2840  -350.9096   724.4652 H6            1 RES     
   24397 H6        -558.5266  -350.5241   725.7084 H6            1 RES     
   24398 H6        -556.9591  -351.3371   727.5049 H6            1 RES     
   24399 H6        -556.2047  -350.0614   726.4975 H6            1 RES     
   24400 H6        -555.7483  -351.7861   726.2328 H6            1 RES     
   24401 C0        -558.5598  -372.8778   728.7277 C0            1 RES     
   24402 C0        -559.3470  -374.1759   728.9098 C0            1 RES     
   24403 C0        -560.6752  -373.9372   729.0293 C0            1 RES     
   24404 S1        -561.5903  -375.3317   729.1690 S1            1 RES     
   24405 C0        -560.2169  -376.3346   729.0703 C0            1 RES     
   24406 C0        -559.0730  -375.5417   728.8761 C0            1 RES     
   24407 C0        -560.9277  -372.5523   728.8274 C0            1 RES     
   24408 C0        -559.7811  -371.9555   728.5914 C0            1 RES     
   24409 C0        -559.9741  -370.6005   728.1093 C0            1 RES     
   24410 C0        -561.3246  -370.2910   728.0530 C0            1 RES     
   24411 S1        -562.4251  -371.6118   728.6014 S1            1 RES     
   24412 H2        -558.1144  -375.9659   728.6660 H2            1 RES     
   24413 H2        -559.2058  -369.9654   727.7029 H2            1 RES     
   24414 N3        -558.9508  -379.8461   729.5763 N3            1 RES     
   24415 C0        -559.0093  -378.4869   729.4851 C0            1 RES     
   24416 C0        -560.2030  -377.8204   729.1426 C0            1 RES     
   24417 C0        -561.3338  -378.6212   728.9117 C0            1 RES     
   24418 N3        -562.5597  -378.1421   728.5699 N3            1 RES     
   24419 S1        -563.4511  -379.5251   728.4042 S1            1 RES     
   24420 N3        -562.3772  -380.7329   728.7444 N3            1 RES     
   24421 C0        -561.2411  -380.0358   729.0035 C0            1 RES     
   24422 C0        -560.0346  -380.6352   729.3408 C0            1 RES     
   24423 H4        -558.1239  -377.9205   729.7140 H4            1 RES     
   24424 C5        -555.3774  -381.7830   725.9000 C5            1 RES     
   24425 C5        -556.1615  -380.5113   725.5725 C5            1 RES     
   24426 C5        -556.4127  -379.6075   726.7926 C5            1 RES     
   24427 C5        -555.1283  -379.0706   727.4545 C5            1 RES     
   24428 C5        -555.4777  -378.1378   728.6270 C5            1 RES     
   24429 C5        -554.2491  -377.7428   729.4585 C5            1 RES     
   24430 C5        -554.6182  -376.8731   730.6840 C5            1 RES     
   24431 C5        -554.8637  -375.3632   730.3759 C5            1 RES     
   24432 C5        -556.2874  -374.8077   730.6880 C5            1 RES     
   24433 C5        -556.6669  -374.9615   732.1898 C5            1 RES     
   24434 C5        -558.1905  -374.9938   732.4122 C5            1 RES     
   24435 C5        -558.5510  -375.6513   733.7617 C5            1 RES     
   24436 C5        -560.0605  -375.9400   733.8492 C5            1 RES     
   24437 C5        -560.4383  -376.8565   735.0268 C5            1 RES     
   24438 C5        -560.1849  -376.2358   736.3961 C5            1 RES     
   24439 C5        -556.3482  -373.3395   730.1540 C5            1 RES     
   24440 C0        -557.6373  -372.4525   729.9549 C0            1 RES     
   24441 C5        -557.0905  -370.9677   729.7961 C5            1 RES     
   24442 C5        -557.2468  -370.0730   731.0711 C5            1 RES     
   24443 C5        -558.6415  -369.3729   731.1797 C5            1 RES     
   24444 C5        -558.8656  -368.1793   730.2217 C5            1 RES     
   24445 C5        -560.3032  -367.6285   730.2199 C5            1 RES     
   24446 C5        -560.7216  -366.8646   731.4907 C5            1 RES     
   24447 C5        -559.9077  -365.5855   731.7830 C5            1 RES     
   24448 C5        -559.9844  -364.5426   730.6631 C5            1 RES     
   24449 C5        -556.0525  -369.0871   731.2970 C5            1 RES     
   24450 C5        -555.5365  -368.2877   730.0726 C5            1 RES     
   24451 C5        -554.5093  -367.1955   730.4475 C5            1 RES     
   24452 C5        -553.2418  -367.7315   731.1400 C5            1 RES     
   24453 C5        -552.2260  -366.6271   731.4957 C5            1 RES     
   24454 C5        -551.5903  -365.9587   730.2612 C5            1 RES     
   24455 C5        -550.5778  -364.8550   730.6164 C5            1 RES     
   24456 C5        -549.3525  -365.3649   731.3765 C5            1 RES     
   24457 H6        -554.3514  -381.5409   726.2439 H6            1 RES     
   24458 H6        -555.2898  -382.4067   724.9848 H6            1 RES     
   24459 H6        -555.9016  -382.3735   726.6811 H6            1 RES     
   24460 H6        -555.6254  -379.9411   724.7843 H6            1 RES     
   24461 H6        -557.1509  -380.8171   725.1657 H6            1 RES     
   24462 H6        -557.0310  -378.7477   726.4546 H6            1 RES     
   24463 H6        -557.0005  -380.1802   727.5435 H6            1 RES     
   24464 H6        -554.5124  -378.5181   726.7117 H6            1 RES     
   24465 H6        -554.5414  -379.9292   727.8435 H6            1 RES     
   24466 H6        -556.0020  -377.2362   728.2442 H6            1 RES     
   24467 H6        -556.1456  -378.7019   729.3071 H6            1 RES     
   24468 H6        -553.8143  -378.6920   729.8434 H6            1 RES     
   24469 H6        -553.4731  -377.2388   728.8431 H6            1 RES     
   24470 H6        -555.4582  -377.3647   731.2151 H6            1 RES     
   24471 H6        -553.7481  -376.9064   731.3736 H6            1 RES     
   24472 H6        -554.6569  -375.2118   729.2925 H6            1 RES     
   24473 H6        -554.1073  -374.7539   730.9164 H6            1 RES     
   24474 H6        -556.9118  -375.4691   730.1302 H6            1 RES     
   24475 H6        -556.3139  -375.9540   732.5182 H6            1 RES     
   24476 H6        -556.1503  -374.2256   732.8433 H6            1 RES     
   24477 H6        -558.6395  -373.9843   732.3008 H6            1 RES     
   24478 H6        -558.6205  -375.6587   731.6341 H6            1 RES     
   24479 H6        -558.2037  -375.0247   734.6110 H6            1 RES     
   24480 H6        -558.0329  -376.6347   733.8138 H6            1 RES     
   24481 H6        -560.6339  -374.9897   733.8869 H6            1 RES     
   24482 H6        -560.3619  -376.4904   732.9296 H6            1 RES     
   24483 H6        -559.8769  -377.8144   734.9482 H6            1 RES     
   24484 H6        -561.5220  -377.0923   734.9500 H6            1 RES     
   24485 H6        -560.7681  -375.2976   736.5036 H6            1 RES     
   24486 H6        -559.1062  -376.0261   736.5449 H6            1 RES     
   24487 H6        -560.5108  -376.9492   737.1834 H6            1 RES     
   24488 H6        -555.8652  -373.3247   729.1516 H6            1 RES     
   24489 H6        -555.6692  -372.7936   730.8500 H6            1 RES     
   24490 H6        -556.0084  -371.0281   729.5549 H6            1 RES     
   24491 H6        -557.4589  -370.4390   728.9062 H6            1 RES     
   24492 H6        -557.1957  -370.7606   731.9465 H6            1 RES     
   24493 H6        -559.4246  -370.1439   731.0123 H6            1 RES     
   24494 H6        -558.7663  -368.9894   732.2150 H6            1 RES     
   24495 H6        -558.1821  -367.3463   730.4611 H6            1 RES     
   24496 H6        -558.6443  -368.5050   729.1947 H6            1 RES     
   24497 H6        -560.4168  -366.9453   729.3522 H6            1 RES     
   24498 H6        -561.0088  -368.4678   730.0563 H6            1 RES     
   24499 H6        -560.6581  -367.5420   732.3674 H6            1 RES     
   24500 H6        -561.7877  -366.5699   731.3724 H6            1 RES     
   24501 H6        -558.8448  -365.8329   731.9813 H6            1 RES     
   24502 H6        -560.3201  -365.1242   732.7062 H6            1 RES     
   24503 H6        -561.0409  -364.2646   730.4616 H6            1 RES     
   24504 H6        -559.4312  -363.6293   730.9682 H6            1 RES     
   24505 H6        -559.5182  -364.9191   729.7297 H6            1 RES     
   24506 H6        -555.1904  -369.6954   731.6437 H6            1 RES     
   24507 H6        -556.3253  -368.3995   732.1271 H6            1 RES     
   24508 H6        -556.3482  -367.7677   729.5441 H6            1 RES     
   24509 H6        -555.0767  -368.9792   729.3385 H6            1 RES     
   24510 H6        -554.2288  -366.6848   729.5033 H6            1 RES     
   24511 H6        -554.9987  -366.4496   731.1120 H6            1 RES     
   24512 H6        -552.7493  -368.4955   730.5004 H6            1 RES     
   24513 H6        -553.5389  -368.2118   732.0956 H6            1 RES     
   24514 H6        -552.7190  -365.8598   732.1325 H6            1 RES     
   24515 H6        -551.4232  -367.1090   732.0912 H6            1 RES     
   24516 H6        -552.3826  -365.4781   729.6524 H6            1 RES     
   24517 H6        -551.0884  -366.7298   729.6369 H6            1 RES     
   24518 H6        -550.2215  -364.3995   729.6666 H6            1 RES     
   24519 H6        -551.0784  -364.0615   731.2125 H6            1 RES     
   24520 H6        -549.6341  -365.7710   732.3688 H6            1 RES     
   24521 H6        -548.6483  -364.5224   731.5440 H6            1 RES     
   24522 H6        -548.8320  -366.1496   730.7879 H6            1 RES     
   24523 C0        -558.1052  -385.3658   728.8552 C0            1 RES     
   24524 C0        -559.2449  -386.3841   728.9016 C0            1 RES     
   24525 C0        -560.3878  -385.8275   729.3696 C0            1 RES     
   24526 S1        -561.6848  -386.8855   729.3822 S1            1 RES     
   24527 C0        -560.7503  -388.1594   728.7452 C0            1 RES     
   24528 C0        -559.4473  -387.6996   728.4890 C0            1 RES     
   24529 C0        -560.1921  -384.4316   729.5589 C0            1 RES     
   24530 C0        -558.9575  -384.1395   729.2168 C0            1 RES     
   24531 C0        -558.7554  -382.7057   729.1207 C0            1 RES     
   24532 C0        -559.9203  -382.0267   729.4440 C0            1 RES     
   24533 S1        -561.3084  -383.0848   729.9021 S1            1 RES     
   24534 H2        -558.7233  -388.2954   727.9753 H2            1 RES     
   24535 H2        -557.8849  -382.2225   728.7116 H2            1 RES     
   24536 N3        -560.6638  -391.8728   728.1185 N3            1 RES     
   24537 C0        -560.2799  -390.5874   728.3628 C0            1 RES     
   24538 C0        -561.2204  -389.5424   728.4635 C0            1 RES     
   24539 C0        -562.5734  -389.8887   728.3128 C0            1 RES     
   24540 N3        -563.6058  -389.0061   728.3775 N3            1 RES     
   24541 S1        -564.9196  -389.9709   728.0986 S1            1 RES     
   24542 N3        -564.2710  -391.4764   727.8963 N3            1 RES     
   24543 C0        -562.9435  -391.2346   728.0483 C0            1 RES     
   24544 C0        -561.9697  -392.2203   727.9556 C0            1 RES     
   24545 H4        -559.2339  -390.3857   728.5122 H4            1 RES     
   24546 C5        -558.4887  -393.5721   723.3837 C5            1 RES     
   24547 C5        -558.8439  -392.0935   723.5476 C5            1 RES     
   24548 C5        -558.6072  -391.5538   724.9694 C5            1 RES     
   24549 C5        -557.1381  -391.6181   725.4315 C5            1 RES     
   24550 C5        -556.9900  -391.0103   726.8372 C5            1 RES     
   24551 C5        -555.5962  -391.2381   727.4392 C5            1 RES     
   24552 C5        -555.4801  -390.6981   728.8846 C5            1 RES     
   24553 C5        -555.2512  -389.1590   729.0011 C5            1 RES     
   24554 C5        -556.3511  -388.3422   729.7469 C5            1 RES     
   24555 C5        -556.5456  -388.8155   731.2169 C5            1 RES     
   24556 C5        -557.9464  -388.4818   731.7630 C5            1 RES     
   24557 C5        -558.3117  -389.3761   732.9671 C5            1 RES     
   24558 C5        -559.8034  -389.2412   733.3224 C5            1 RES     
   24559 C5        -560.2949  -390.3172   734.3074 C5            1 RES     
   24560 C5        -559.6605  -390.2218   735.6905 C5            1 RES     
   24561 C5        -555.9954  -386.8270   729.5983 C5            1 RES     
   24562 C0        -556.9314  -385.5956   729.9075 C0            1 RES     
   24563 C5        -555.9508  -384.3459   729.9809 C5            1 RES     
   24564 C5        -555.6209  -383.8573   731.4311 C5            1 RES     
   24565 C5        -556.6744  -382.8570   732.0115 C5            1 RES     
   24566 C5        -556.6216  -381.4228   731.4346 C5            1 RES     
   24567 C5        -557.7800  -380.5146   731.8854 C5            1 RES     
   24568 C5        -557.7387  -380.0707   733.3601 C5            1 RES     
   24569 C5        -556.5139  -379.2161   733.7520 C5            1 RES     
   24570 C5        -556.3964  -377.9136   732.9535 C5            1 RES     
   24571 C5        -554.1480  -383.3581   731.6060 C5            1 RES     
   24572 C5        -553.5729  -382.4143   730.5183 C5            1 RES     
   24573 C5        -552.1996  -381.8147   730.8966 C5            1 RES     
   24574 C5        -551.0981  -382.8636   731.1409 C5            1 RES     
   24575 C5        -549.7342  -382.2440   731.5065 C5            1 RES     
   24576 C5        -549.0924  -381.4506   730.3517 C5            1 RES     
   24577 C5        -547.7317  -380.8306   730.7174 C5            1 RES     
   24578 C5        -546.6514  -381.8635   731.0412 C5            1 RES     
   24579 H6        -557.4030  -393.7399   723.5345 H6            1 RES     
   24580 H6        -558.7423  -393.8989   722.3528 H6            1 RES     
   24581 H6        -559.0641  -394.1929   724.1028 H6            1 RES     
   24582 H6        -558.2651  -391.4924   722.8145 H6            1 RES     
   24583 H6        -559.9254  -391.9757   723.3143 H6            1 RES     
   24584 H6        -558.9460  -390.4952   724.9898 H6            1 RES     
   24585 H6        -559.2404  -392.1317   725.6783 H6            1 RES     
   24586 H6        -556.4843  -391.0688   724.7193 H6            1 RES     
   24587 H6        -556.8210  -392.6815   725.4668 H6            1 RES     
   24588 H6        -557.2336  -389.9268   726.8038 H6            1 RES     
   24589 H6        -557.7050  -391.5371   727.4992 H6            1 RES     
   24590 H6        -555.4517  -392.3405   727.4837 H6            1 RES     
   24591 H6        -554.7914  -390.8156   726.8000 H6            1 RES     
   24592 H6        -556.3523  -391.0666   729.4614 H6            1 RES     
   24593 H6        -554.5828  -391.1750   729.3331 H6            1 RES     
   24594 H6        -555.1599  -388.7617   727.9651 H6            1 RES     
   24595 H6        -554.2675  -388.9730   729.4843 H6            1 RES     
   24596 H6        -557.2313  -388.6080   729.2054 H6            1 RES     
   24597 H6        -556.4997  -389.9181   731.2163 H6            1 RES     
   24598 H6        -555.7278  -388.4795   731.8906 H6            1 RES     
   24599 H6        -558.0459  -387.4002   731.9945 H6            1 RES     
   24600 H6        -558.6773  -388.7408   730.9685 H6            1 RES     
   24601 H6        -557.6607  -389.1497   733.8385 H6            1 RES     
   24602 H6        -558.1475  -390.4359   732.6699 H6            1 RES     
   24603 H6        -560.0176  -388.2225   733.7092 H6            1 RES     
   24604 H6        -560.3961  -389.3903   732.3920 H6            1 RES     
   24605 H6        -560.1002  -391.3275   733.8829 H6            1 RES     
   24606 H6        -561.3948  -390.2055   734.4238 H6            1 RES     
   24607 H6        -559.8781  -389.2318   736.1427 H6            1 RES     
   24608 H6        -558.5638  -390.3771   735.6372 H6            1 RES     
   24609 H6        -560.0909  -391.0126   736.3420 H6            1 RES     
   24610 H6        -555.6805  -386.6560   728.5448 H6            1 RES     
   24611 H6        -555.0833  -386.7227   730.2312 H6            1 RES     
   24612 H6        -554.9953  -384.6348   729.4949 H6            1 RES     
   24613 H6        -556.2438  -383.4986   729.3456 H6            1 RES     
   24614 H6        -555.6787  -384.7563   732.0870 H6            1 RES     
   24615 H6        -557.6842  -383.2925   731.8495 H6            1 RES     
   24616 H6        -556.5184  -382.7744   733.1084 H6            1 RES     
   24617 H6        -555.6740  -380.9238   731.7016 H6            1 RES     
   24618 H6        -556.6672  -381.4822   730.3373 H6            1 RES     
   24619 H6        -557.7809  -379.6043   731.2498 H6            1 RES     
   24620 H6        -558.7398  -381.0354   731.6935 H6            1 RES     
   24621 H6        -557.7813  -380.9642   734.0168 H6            1 RES     
   24622 H6        -558.6519  -379.4670   733.5572 H6            1 RES     
   24623 H6        -555.5767  -379.7991   733.6423 H6            1 RES     
   24624 H6        -556.6160  -378.9486   734.8259 H6            1 RES     
   24625 H6        -557.3178  -377.3035   733.0658 H6            1 RES     
   24626 H6        -555.5344  -377.3237   733.3308 H6            1 RES     
   24627 H6        -556.2173  -378.1157   731.8776 H6            1 RES     
   24628 H6        -553.4970  -384.2580   731.5977 H6            1 RES     
   24629 H6        -554.0579  -382.8959   732.6132 H6            1 RES     
   24630 H6        -554.2316  -381.5562   730.3227 H6            1 RES     
   24631 H6        -553.4765  -382.9608   729.5588 H6            1 RES     
   24632 H6        -551.9009  -381.1506   730.0596 H6            1 RES     
   24633 H6        -552.3154  -381.1898   731.8096 H6            1 RES     
   24634 H6        -550.9820  -383.5132   730.2465 H6            1 RES     
   24635 H6        -551.4006  -383.4987   731.9996 H6            1 RES     
   24636 H6        -549.8500  -381.5905   732.3990 H6            1 RES     
   24637 H6        -549.0617  -383.0844   731.7764 H6            1 RES     
   24638 H6        -549.7573  -380.6104   730.0666 H6            1 RES     
   24639 H6        -548.9676  -382.1138   729.4680 H6            1 RES     
   24640 H6        -547.3813  -380.2365   729.8451 H6            1 RES     
   24641 H6        -547.8518  -380.1390   731.5793 H6            1 RES     
   24642 H6        -546.9098  -382.4459   731.9484 H6            1 RES     
   24643 H6        -545.6914  -381.3406   731.2378 H6            1 RES     
   24644 H6        -546.5088  -382.5548   730.1840 H6            1 RES     
   24645 C0        -561.8081  -396.9443   725.9568 C0            1 RES     
   24646 C0        -563.2027  -397.5680   726.0196 C0            1 RES     
   24647 C0        -564.0185  -396.8749   726.8498 C0            1 RES     
   24648 S1        -565.5777  -397.4808   726.9067 S1            1 RES     
   24649 C0        -565.2181  -398.7215   725.7961 C0            1 RES     
   24650 C0        -563.8859  -398.5927   725.3677 C0            1 RES     
   24651 C0        -563.3460  -395.7096   727.3107 C0            1 RES     
   24652 C0        -562.1454  -395.6896   726.7772 C0            1 RES     
   24653 C0        -561.4944  -394.4080   726.9756 C0            1 RES     
   24654 C0        -562.3105  -393.5544   727.7025 C0            1 RES     
   24655 S1        -563.8923  -394.2652   728.2014 S1            1 RES     
   24656 H2        -563.4803  -399.1904   724.5795 H2            1 RES     
   24657 H2        -560.5794  -394.0914   726.5055 H2            1 RES     
   24658 N3        -566.4577  -401.9563   724.3166 N3            1 RES     
   24659 C0        -565.6388  -400.9609   724.7615 C0            1 RES     
   24660 C0        -566.1551  -399.7709   725.3126 C0            1 RES     
   24661 C0        -567.5533  -399.6628   725.3939 C0            1 RES     
   24662 N3        -568.2144  -398.5848   725.8938 N3            1 RES     
   24663 S1        -569.7993  -399.0155   725.7006 S1            1 RES     
   24664 N3        -569.7223  -400.5146   725.0116 N3            1 RES     
   24665 C0        -568.3823  -400.7114   724.9128 C0            1 RES     
   24666 C0        -567.8141  -401.8590   724.3756 C0            1 RES     
   24667 H4        -564.5751  -401.1144   724.7142 H4            1 RES     
   24668 C5        -565.6565  -402.7354   718.9512 C5            1 RES     
   24669 C5        -565.4742  -401.3321   719.5316 C5            1 RES     
   24670 C5        -564.8749  -401.3215   720.9491 C5            1 RES     
   24671 C5        -563.4610  -401.9286   721.0403 C5            1 RES     
   24672 C5        -562.9241  -401.8261   722.4785 C5            1 RES     
   24673 C5        -561.6151  -402.6024   722.6808 C5            1 RES     
   24674 C5        -561.1249  -402.5645   724.1479 C5            1 RES     
   24675 C5        -560.3842  -401.2562   724.5660 C5            1 RES     
   24676 C5        -561.0346  -400.4187   725.7099 C5            1 RES     
   24677 C5        -561.1670  -401.2268   727.0337 C5            1 RES     
   24678 C5        -562.2864  -400.6876   727.9437 C5            1 RES     
   24679 C5        -562.7552  -401.7547   728.9561 C5            1 RES     
   24680 C5        -564.0521  -401.3159   729.6597 C5            1 RES     
   24681 C5        -564.7296  -402.4493   730.4508 C5            1 RES     
   24682 C5        -563.9122  -402.9453   731.6385 C5            1 RES     
   24683 C5        -560.2207  -399.0904   725.8432 C5            1 RES     
   24684 C0        -560.6418  -397.7923   726.6341 C0            1 RES     
   24685 C5        -559.3020  -396.9473   726.7745 C5            1 RES     
   24686 C5        -558.6288  -397.0179   728.1860 C5            1 RES     
   24687 C5        -559.1981  -395.9774   729.2059 C5            1 RES     
   24688 C5        -558.7537  -394.5126   728.9833 C5            1 RES     
   24689 C5        -559.4698  -393.4887   729.8828 C5            1 RES     
   24690 C5        -559.0771  -393.5262   731.3720 C5            1 RES     
   24691 C5        -557.5960  -393.2042   731.6664 C5            1 RES     
   24692 C5        -557.1660  -391.8132   731.1888 C5            1 RES     
   24693 C5        -557.0646  -397.0271   728.1362 C5            1 RES     
   24694 C5        -556.3674  -396.0079   727.1983 C5            1 RES     
   24695 C5        -554.8343  -395.9568   727.3868 C5            1 RES     
   24696 C5        -554.1206  -397.2966   727.1248 C5            1 RES     
   24697 C5        -552.5913  -397.2208   727.3080 C5            1 RES     
   24698 C5        -551.8913  -396.3382   726.2564 C5            1 RES     
   24699 C5        -550.3649  -396.2612   726.4406 C5            1 RES     
   24700 C5        -549.6546  -397.6039   726.2623 C5            1 RES     
   24701 H6        -564.6784  -403.2382   718.8100 H6            1 RES     
   24702 H6        -566.1461  -402.6611   717.9568 H6            1 RES     
   24703 H6        -566.2985  -403.3515   719.6160 H6            1 RES     
   24704 H6        -564.8376  -400.7310   718.8481 H6            1 RES     
   24705 H6        -566.4767  -400.8521   719.5820 H6            1 RES     
   24706 H6        -564.8368  -400.2647   721.2920 H6            1 RES     
   24707 H6        -565.5580  -401.8791   721.6274 H6            1 RES     
   24708 H6        -562.7687  -401.4020   720.3476 H6            1 RES     
   24709 H6        -563.5133  -403.0000   720.7538 H6            1 RES     
   24710 H6        -562.7964  -400.7576   722.7548 H6            1 RES     
   24711 H6        -563.6730  -402.3002   723.1427 H6            1 RES     
   24712 H6        -561.8400  -403.6636   722.4328 H6            1 RES     
   24713 H6        -560.8137  -402.2555   721.9935 H6            1 RES     
   24714 H6        -561.9800  -402.8248   724.8039 H6            1 RES     
   24715 H6        -560.3832  -403.3839   724.2587 H6            1 RES     
   24716 H6        -560.3125  -400.6156   723.6583 H6            1 RES     
   24717 H6        -559.3371  -401.5043   724.8449 H6            1 RES     
   24718 H6        -562.0198  -400.2556   725.3340 H6            1 RES     
   24719 H6        -561.4902  -402.2472   726.7652 H6            1 RES     
   24720 H6        -560.1982  -401.3468   727.5652 H6            1 RES     
   24721 H6        -561.9877  -399.7389   728.4377 H6            1 RES     
   24722 H6        -563.1656  -400.4864   727.2964 H6            1 RES     
   24723 H6        -561.9506  -401.9858   729.6866 H6            1 RES     
   24724 H6        -562.9954  -402.6825   728.3905 H6            1 RES     
   24725 H6        -563.8596  -400.4378   730.3118 H6            1 RES     
   24726 H6        -564.7849  -401.0133   728.8783 H6            1 RES     
   24727 H6        -564.9428  -403.3032   729.7695 H6            1 RES     
   24728 H6        -565.7022  -402.0720   730.8348 H6            1 RES     
   24729 H6        -563.7232  -402.1116   732.3464 H6            1 RES     
   24730 H6        -562.9481  -403.3800   731.3048 H6            1 RES     
   24731 H6        -564.4849  -403.7376   732.1670 H6            1 RES     
   24732 H6        -560.0179  -398.7144   724.8157 H6            1 RES     
   24733 H6        -559.2465  -399.4368   726.2607 H6            1 RES     
   24734 H6        -558.5747  -397.3378   726.0320 H6            1 RES     
   24735 H6        -559.3832  -395.9047   726.4375 H6            1 RES     
   24736 H6        -558.8891  -398.0152   728.6095 H6            1 RES     
   24737 H6        -560.3074  -396.0439   729.1785 H6            1 RES     
   24738 H6        -558.8714  -396.2667   730.2277 H6            1 RES     
   24739 H6        -557.6667  -394.4011   729.1389 H6            1 RES     
   24740 H6        -558.9698  -394.2329   727.9418 H6            1 RES     
   24741 H6        -559.2576  -392.4705   729.4944 H6            1 RES     
   24742 H6        -560.5648  -393.6386   729.7959 H6            1 RES     
   24743 H6        -559.3213  -394.5230   731.7942 H6            1 RES     
   24744 H6        -559.7010  -392.7753   731.9052 H6            1 RES     
   24745 H6        -556.9306  -393.9684   731.2154 H6            1 RES     
   24746 H6        -557.4519  -393.2453   732.7677 H6            1 RES     
   24747 H6        -557.8073  -391.0293   731.6452 H6            1 RES     
   24748 H6        -556.1133  -391.6268   731.4893 H6            1 RES     
   24749 H6        -557.2168  -391.7334   730.0836 H6            1 RES     
   24750 H6        -556.7571  -398.0301   727.7716 H6            1 RES     
   24751 H6        -556.6859  -396.9247   729.1766 H6            1 RES     
   24752 H6        -556.7245  -394.9812   727.3620 H6            1 RES     
   24753 H6        -556.5933  -396.2537   726.1414 H6            1 RES     
   24754 H6        -554.4526  -395.1888   726.6829 H6            1 RES     
   24755 H6        -554.6069  -395.6203   728.4224 H6            1 RES     
   24756 H6        -554.3533  -397.6612   726.1009 H6            1 RES     
   24757 H6        -554.4932  -398.0433   727.8568 H6            1 RES     
   24758 H6        -552.3574  -396.8522   728.3310 H6            1 RES     
   24759 H6        -552.2051  -398.2570   727.2155 H6            1 RES     
   24760 H6        -552.2726  -395.3000   726.3328 H6            1 RES     
   24761 H6        -552.1189  -396.7209   725.2375 H6            1 RES     
   24762 H6        -549.9632  -395.5615   725.6754 H6            1 RES     
   24763 H6        -550.1265  -395.8476   727.4445 H6            1 RES     
   24764 H6        -549.9617  -398.3289   727.0427 H6            1 RES     
   24765 H6        -548.5580  -397.4534   726.3541 H6            1 RES     
   24766 H6        -549.8712  -398.0248   725.2579 H6            1 RES     
   24767 C0        -569.5114  -405.6370   721.3452 C0            1 RES     
   24768 C0        -571.0106  -405.8333   721.5730 C0            1 RES     
   24769 C0        -571.4252  -405.2133   722.7040 C0            1 RES     
   24770 S1        -573.0728  -405.3453   722.9676 S1            1 RES     
   24771 C0        -573.3048  -406.2554   721.5463 C0            1 RES     
   24772 C0        -572.0794  -406.3869   720.8710 C0            1 RES     
   24773 C0        -570.3465  -404.4723   723.2607 C0            1 RES     
   24774 C0        -569.2947  -404.6355   722.4902 C0            1 RES     
   24775 C0        -568.2343  -403.7053   722.8306 C0            1 RES     
   24776 C0        -568.6103  -402.9084   723.9013 C0            1 RES     
   24777 S1        -570.2518  -403.2592   724.5635 S1            1 RES     
   24778 H2        -572.0100  -406.8166   719.8946 H2            1 RES     
   24779 H2        -567.3415  -403.5357   722.2537 H2            1 RES     
   24780 N3        -575.7423  -408.4303   719.6706 N3            1 RES     
   24781 C0        -574.5856  -407.8810   720.1394 C0            1 RES     
   24782 C0        -574.5950  -406.8095   721.0549 C0            1 RES     
   24783 C0        -575.8520  -406.3414   721.4720 C0            1 RES     
   24784 N3        -576.0408  -405.3165   722.3456 N3            1 RES     
   24785 S1        -577.6893  -405.2080   722.4193 S1            1 RES     
   24786 N3        -578.2116  -406.3981   721.4001 N3            1 RES     
   24787 C0        -577.0408  -406.9258   720.9588 C0            1 RES     
   24788 C0        -576.9670  -407.9772   720.0546 C0            1 RES     
   24789 H4        -573.6510  -408.3066   719.8192 H4            1 RES     
   24790 C5        -576.0057  -407.7976   714.2331 C5            1 RES     
   24791 C5        -575.2885  -406.7361   715.0687 C5            1 RES     
   24792 C5        -574.5272  -407.3097   716.2770 C5            1 RES     
   24793 C5        -573.3970  -408.2889   715.9030 C5            1 RES     
   24794 C5        -572.6605  -408.7670   717.1663 C5            1 RES     
   24795 C5        -571.6687  -409.9038   716.8815 C5            1 RES     
   24796 C5        -570.9932  -410.4363   718.1677 C5            1 RES     
   24797 C5        -569.8093  -409.5713   718.7018 C5            1 RES     
   24798 C5        -569.9777  -408.9577   720.1260 C5            1 RES     
   24799 C5        -570.1838  -410.0464   721.2192 C5            1 RES     
   24800 C5        -570.9215  -409.5051   722.4581 C5            1 RES     
   24801 C5        -571.5710  -410.6448   723.2721 C5            1 RES     
   24802 C5        -572.5365  -410.0850   724.3323 C5            1 RES     
   24803 C5        -573.4338  -411.1619   724.9685 C5            1 RES     
   24804 C5        -572.6694  -412.1925   725.7919 C5            1 RES     
   24805 C5        -568.7589  -408.0116   720.3789 C5            1 RES     
   24806 C0        -568.6101  -406.9382   721.5251 C0            1 RES     
   24807 C5        -567.0601  -406.5838   721.5534 C5            1 RES     
   24808 C5        -566.2576  -407.2506   722.7204 C5            1 RES     
   24809 C5        -566.3003  -406.4380   724.0564 C5            1 RES     
   24810 C5        -565.4308  -405.1591   724.0878 C5            1 RES     
   24811 C5        -565.6329  -404.2852   725.3390 C5            1 RES     
   24812 C5        -565.0702  -404.8656   726.6505 C5            1 RES     
   24813 C5        -563.5404  -405.0740   726.6705 C5            1 RES     
   24814 C5        -562.7446  -403.7838   726.4468 C5            1 RES     
   24815 C5        -564.8085  -407.6843   722.3188 C5            1 RES     
   24816 C5        -563.9513  -406.6744   721.5126 C5            1 RES     
   24817 C5        -562.4778  -407.1139   721.3575 C5            1 RES     
   24818 C5        -562.2935  -408.4625   720.6360 C5            1 RES     
   24819 C5        -560.8161  -408.8768   720.4825 C5            1 RES     
   24820 C5        -560.0175  -407.9593   719.5362 C5            1 RES     
   24821 C5        -558.5423  -408.3720   719.3846 C5            1 RES     
   24822 C5        -558.3503  -409.7467   718.7424 C5            1 RES     
   24823 H6        -575.2800  -408.4908   713.7618 H6            1 RES     
   24824 H6        -576.5772  -407.3010   713.4201 H6            1 RES     
   24825 H6        -576.7159  -408.3746   714.8626 H6            1 RES     
   24826 H6        -574.5910  -406.1658   714.4192 H6            1 RES     
   24827 H6        -576.0573  -406.0303   715.4543 H6            1 RES     
   24828 H6        -574.0929  -406.4550   716.8395 H6            1 RES     
   24829 H6        -575.2544  -407.8258   716.9422 H6            1 RES     
   24830 H6        -572.6736  -407.7996   715.2148 H6            1 RES     
   24831 H6        -573.8415  -409.1696   715.3936 H6            1 RES     
   24832 H6        -572.1480  -407.9072   717.6485 H6            1 RES     
   24833 H6        -573.4234  -409.1841   717.8526 H6            1 RES     
   24834 H6        -572.2654  -410.7379   716.4498 H6            1 RES     
   24835 H6        -570.9024  -409.6110   716.1319 H6            1 RES     
   24836 H6        -571.7852  -410.6258   718.9200 H6            1 RES     
   24837 H6        -570.5577  -411.4262   717.9140 H6            1 RES     
   24838 H6        -569.6571  -408.7404   717.9767 H6            1 RES     
   24839 H6        -568.8758  -410.1740   718.6719 H6            1 RES     
   24840 H6        -570.8953  -408.4216   720.0304 H6            1 RES     
   24841 H6        -570.8616  -410.8095   720.7998 H6            1 RES     
   24842 H6        -569.2454  -410.5840   721.4757 H6            1 RES     
   24843 H6        -570.2588  -408.8666   723.0796 H6            1 RES     
   24844 H6        -571.7656  -408.8846   722.0908 H6            1 RES     
   24845 H6        -570.7947  -411.2960   723.7279 H6            1 RES     
   24846 H6        -572.1823  -411.2597   722.5745 H6            1 RES     
   24847 H6        -571.9741  -409.5274   725.1107 H6            1 RES     
   24848 H6        -573.2292  -409.3737   723.8289 H6            1 RES     
   24849 H6        -574.0116  -411.6830   724.1726 H6            1 RES     
   24850 H6        -574.1621  -410.6559   725.6389 H6            1 RES     
   24851 H6        -572.1171  -411.6909   726.6137 H6            1 RES     
   24852 H6        -571.9611  -412.7633   725.1576 H6            1 RES     
   24853 H6        -573.3925  -412.9104   726.2358 H6            1 RES     
   24854 H6        -568.5890  -407.4242   719.4492 H6            1 RES     
   24855 H6        -567.9065  -408.7242   720.4735 H6            1 RES     
   24856 H6        -566.6153  -406.9279   720.5961 H6            1 RES     
   24857 H6        -566.8370  -405.5094   721.4964 H6            1 RES     
   24858 H6        -566.7721  -408.2128   722.9467 H6            1 RES     
   24859 H6        -567.3610  -406.1789   724.2648 H6            1 RES     
   24860 H6        -565.9483  -407.0933   724.8817 H6            1 RES     
   24861 H6        -564.3580  -405.4084   724.0162 H6            1 RES     
   24862 H6        -565.6857  -404.5379   723.2166 H6            1 RES     
   24863 H6        -565.1514  -403.3006   725.1616 H6            1 RES     
   24864 H6        -566.7163  -404.0888   725.4685 H6            1 RES     
   24865 H6        -565.5696  -405.8315   726.8720 H6            1 RES     
   24866 H6        -565.3282  -404.1599   727.4707 H6            1 RES     
   24867 H6        -563.2366  -405.8276   725.9155 H6            1 RES     
   24868 H6        -563.2652  -405.4743   727.6701 H6            1 RES     
   24869 H6        -563.0187  -403.0206   727.2060 H6            1 RES     
   24870 H6        -561.6586  -403.9975   726.5374 H6            1 RES     
   24871 H6        -562.9205  -403.3732   725.4315 H6            1 RES     
   24872 H6        -564.9057  -408.5807   721.6704 H6            1 RES     
   24873 H6        -564.2753  -408.0017   723.2415 H6            1 RES     
   24874 H6        -563.9207  -405.6835   721.9877 H6            1 RES     
   24875 H6        -564.3919  -406.5262   720.5064 H6            1 RES     
   24876 H6        -561.9655  -406.3134   720.7850 H6            1 RES     
   24877 H6        -562.0088  -407.1734   722.3644 H6            1 RES     
   24878 H6        -562.7751  -408.4307   719.6348 H6            1 RES     
   24879 H6        -562.7863  -409.2543   721.2379 H6            1 RES     
   24880 H6        -560.3321  -408.9050   721.4836 H6            1 RES     
   24881 H6        -560.8127  -409.9054   720.0660 H6            1 RES     
   24882 H6        -560.0180  -406.9255   719.9369 H6            1 RES     
   24883 H6        -560.4998  -407.9469   718.5344 H6            1 RES     
   24884 H6        -558.0426  -407.6216   718.7337 H6            1 RES     
   24885 H6        -558.0419  -408.3548   720.3770 H6            1 RES     
   24886 H6        -558.7680  -410.5513   719.3804 H6            1 RES     
   24887 H6        -557.2645  -409.9444   718.6173 H6            1 RES     
   24888 H6        -558.8330  -409.7766   717.7428 H6            1 RES     
   24889 C0        -580.2291  -410.0660   716.6882 C0            1 RES     
   24890 C0        -581.6608  -409.8905   717.1956 C0            1 RES     
   24891 C0        -581.6832  -409.5383   718.5035 C0            1 RES     
   24892 S1        -583.2270  -409.2728   719.0932 S1            1 RES     
   24893 C0        -583.9448  -409.6234   717.5886 C0            1 RES     
   24894 C0        -582.9400  -409.8905   716.6431 C0            1 RES     
   24895 C0        -580.3530  -409.3272   718.9602 C0            1 RES     
   24896 C0        -579.5340  -409.5467   717.9564 C0            1 RES     
   24897 C0        -578.1883  -409.0943   718.2567 C0            1 RES     
   24898 C0        -578.1245  -408.5736   719.5403 C0            1 RES     
   24899 S1        -579.6794  -408.6265   720.4545 S1            1 RES     
   24900 H2        -583.1548  -410.0170   715.6034 H2            1 RES     
   24901 H2        -577.3801  -409.0215   717.5495 H2            1 RES     
   24902 N3        -587.2034  -410.3768   715.8555 N3            1 RES     
   24903 C0        -585.8764  -410.3373   716.1666 C0            1 RES     
   24904 C0        -585.4011  -409.6232   717.2850 C0            1 RES     
   24905 C0        -586.3599  -408.9640   718.0720 C0            1 RES     
   24906 N3        -586.0733  -408.2298   719.1802 N3            1 RES     
   24907 S1        -587.5648  -407.6886   719.6466 S1            1 RES     
   24908 N3        -588.5899  -408.3312   718.5222 N3            1 RES     
   24909 C0        -587.7347  -409.0136   717.7179 C0            1 RES     
   24910 C0        -588.1416  -409.7307   716.6004 C0            1 RES     
   24911 H4        -585.1906  -410.8953   715.5538 H4            1 RES     
   24912 C5        -588.0015  -408.1333   710.9193 C5            1 RES     
   24913 C5        -586.8630  -407.6094   711.7960 C5            1 RES     
   24914 C5        -586.1738  -408.7013   712.6335 C5            1 RES     
   24915 C5        -585.4969  -409.8045   711.7964 C5            1 RES     
   24916 C5        -584.7915  -410.8183   712.7138 C5            1 RES     
   24917 C5        -584.2835  -412.0528   711.9555 C5            1 RES     
   24918 C5        -583.6497  -413.1058   712.8955 C5            1 RES     
   24919 C5        -582.1834  -412.8044   713.3361 C5            1 RES     
   24920 C5        -581.9372  -412.6131   714.8645 C5            1 RES     
   24921 C5        -582.3375  -413.8701   715.6907 C5            1 RES     
   24922 C5        -582.6723  -413.5305   717.1551 C5            1 RES     
   24923 C5        -583.5423  -414.6276   717.8052 C5            1 RES     
   24924 C5        -584.1085  -414.1547   719.1563 C5            1 RES     
   24925 C5        -585.2137  -415.0728   719.7087 C5            1 RES     
   24926 C5        -584.7273  -416.4707   720.0746 C5            1 RES     
   24927 C5        -580.4508  -412.1651   715.0502 C5            1 RES     
   24928 C0        -579.7949  -411.5613   716.3514 C0            1 RES     
   24929 C5        -578.2274  -411.6816   716.1118 C5            1 RES     
   24930 C5        -577.5366  -412.8582   716.8791 C5            1 RES     
   24931 C5        -577.1194  -412.4944   718.3423 C5            1 RES     
   24932 C5        -575.8794  -411.5792   718.4748 C5            1 RES     
   24933 C5        -575.6024  -411.0899   719.9080 C5            1 RES     
   24934 C5        -575.0863  -412.1624   720.8862 C5            1 RES     
   24935 C5        -573.7256  -412.7888   720.5118 C5            1 RES     
   24936 C5        -572.5864  -411.7680   720.4223 C5            1 RES     
   24937 C5        -576.3850  -413.5445   716.0716 C5            1 RES     
   24938 C5        -575.3633  -412.6266   715.3518 C5            1 RES     
   24939 C5        -574.1563  -413.3973   714.7705 C5            1 RES     
   24940 C5        -574.5332  -414.4705   713.7315 C5            1 RES     
   24941 C5        -573.3140  -415.2197   713.1568 C5            1 RES     
   24942 C5        -572.3973  -414.3288   712.2961 C5            1 RES     
   24943 C5        -571.1794  -415.0764   711.7240 C5            1 RES     
   24944 C5        -571.5465  -416.1989   710.7522 C5            1 RES     
   24945 H6        -587.6207  -408.8330   710.1481 H6            1 RES     
   24946 H6        -588.4838  -407.2808   710.3950 H6            1 RES     
   24947 H6        -588.7672  -408.6452   711.5400 H6            1 RES     
   24948 H6        -586.1141  -407.0942   711.1578 H6            1 RES     
   24949 H6        -587.2918  -406.8609   712.4988 H6            1 RES     
   24950 H6        -585.4061  -408.2068   713.2674 H6            1 RES     
   24951 H6        -586.9302  -409.1631   713.3060 H6            1 RES     
   24952 H6        -584.7562  -409.3594   711.0968 H6            1 RES     
   24953 H6        -586.2753  -410.3354   711.2090 H6            1 RES     
   24954 H6        -583.9604  -410.3178   713.2552 H6            1 RES     
   24955 H6        -585.5453  -411.1858   713.4374 H6            1 RES     
   24956 H6        -585.1775  -412.5210   711.4868 H6            1 RES     
   24957 H6        -583.5766  -411.7813   711.1422 H6            1 RES     
   24958 H6        -584.3460  -413.2764   713.7414 H6            1 RES     
   24959 H6        -583.6076  -414.0587   712.3263 H6            1 RES     
   24960 H6        -581.8673  -411.8757   712.8100 H6            1 RES     
   24961 H6        -581.5168  -413.6091   712.9567 H6            1 RES     
   24962 H6        -582.6286  -411.8371   715.1059 H6            1 RES     
   24963 H6        -583.2818  -414.2541   715.2684 H6            1 RES     
   24964 H6        -581.6045  -414.7003   715.5963 H6            1 RES     
   24965 H6        -581.7550  -413.3151   717.7429 H6            1 RES     
   24966 H6        -583.3052  -412.6185   717.1428 H6            1 RES     
   24967 H6        -582.9704  -415.5744   717.9094 H6            1 RES     
   24968 H6        -584.4144  -414.8136   717.1395 H6            1 RES     
   24969 H6        -583.2896  -414.0310   719.8962 H6            1 RES     
   24970 H6        -584.5892  -413.1625   719.0023 H6            1 RES     
   24971 H6        -586.0373  -415.1537   718.9643 H6            1 RES     
   24972 H6        -585.6312  -414.6018   720.6250 H6            1 RES     
   24973 H6        -583.9304  -416.4080   720.8447 H6            1 RES     
   24974 H6        -584.3450  -417.0058   719.1818 H6            1 RES     
   24975 H6        -585.5778  -417.0533   720.4897 H6            1 RES     
   24976 H6        -580.2277  -411.4040   714.2696 H6            1 RES     
   24977 H6        -579.8789  -413.0838   714.7811 H6            1 RES     
   24978 H6        -578.0610  -411.8410   715.0257 H6            1 RES     
   24979 H6        -577.6708  -410.7457   716.2586 H6            1 RES     
   24980 H6        -578.3041  -413.6591   716.9844 H6            1 RES     
   24981 H6        -577.9937  -412.0203   718.8389 H6            1 RES     
   24982 H6        -576.8929  -413.4338   718.8906 H6            1 RES     
   24983 H6        -574.9714  -412.0878   718.1072 H6            1 RES     
   24984 H6        -576.0331  -410.6849   717.8533 H6            1 RES     
   24985 H6        -574.8514  -410.2735   719.8617 H6            1 RES     
   24986 H6        -576.5298  -410.6437   720.3203 H6            1 RES     
   24987 H6        -575.8417  -412.9695   720.9826 H6            1 RES     
   24988 H6        -574.9777  -411.6849   721.8849 H6            1 RES     
   24989 H6        -573.7982  -413.3421   719.5532 H6            1 RES     
   24990 H6        -573.4616  -413.5246   721.3019 H6            1 RES     
   24991 H6        -572.4823  -411.2155   721.3804 H6            1 RES     
   24992 H6        -571.6316  -412.2952   720.2134 H6            1 RES     
   24993 H6        -572.7566  -411.0461   719.5974 H6            1 RES     
   24994 H6        -576.8642  -414.1467   715.2708 H6            1 RES     
   24995 H6        -575.8637  -414.2545   716.7501 H6            1 RES     
   24996 H6        -574.9393  -411.8686   716.0257 H6            1 RES     
   24997 H6        -575.8662  -412.0729   714.5338 H6            1 RES     
   24998 H6        -573.4931  -412.6422   714.3006 H6            1 RES     
   24999 H6        -573.5974  -413.8781   715.6034 H6            1 RES     
   25000 H6        -575.1122  -414.0130   712.9004 H6            1 RES     
   25001 H6        -575.1713  -415.2317   714.2270 H6            1 RES     
   25002 H6        -572.7315  -415.6745   713.9880 H6            1 RES     
   25003 H6        -573.7106  -416.0388   712.5219 H6            1 RES     
   25004 H6        -571.9984  -413.5010   712.9166 H6            1 RES     
   25005 H6        -572.9835  -413.8886   711.4600 H6            1 RES     
   25006 H6        -570.5555  -414.3406   711.1710 H6            1 RES     
   25007 H6        -570.5677  -415.4918   712.5540 H6            1 RES     
   25008 H6        -572.1138  -417.0035   711.2618 H6            1 RES     
   25009 H6        -570.6168  -416.6483   710.3432 H6            1 RES     
   25010 H6        -572.1469  -415.7980   709.9085 H6            1 RES     
   25011 C0        -592.3499  -409.7374   713.6632 C0            1 RES     
   25012 C0        -593.5561  -409.3229   714.5066 C0            1 RES     
   25013 C0        -593.2767  -409.3774   715.8310 C0            1 RES     
   25014 S1        -594.5460  -408.8732   716.7986 S1            1 RES     
   25015 C0        -595.5429  -408.5515   715.4552 C0            1 RES     
   25016 C0        -594.8268  -408.8015   714.2721 C0            1 RES     
   25017 C0        -591.9017  -409.6922   716.0126 C0            1 RES     
   25018 C0        -591.3513  -409.8294   714.8274 C0            1 RES     
   25019 C0        -589.9038  -409.8822   714.9140 C0            1 RES     
   25020 C0        -589.4914  -409.7998   716.2353 C0            1 RES     
   25021 S1        -590.8312  -409.6784   717.4380 S1            1 RES     
   25022 H2        -595.2149  -408.5525   713.3075 H2            1 RES     
   25023 H2        -589.2248  -409.8359   714.0800 H2            1 RES     
   25024 N3        -599.0757  -407.8166   714.3739 N3            1 RES     
   25025 C0        -597.7810  -408.2447   714.3785 C0            1 RES     
   25026 C0        -596.9439  -408.0530   715.4961 C0            1 RES     
   25027 C0        -597.5091  -407.4112   716.6105 C0            1 RES     
   25028 N3        -596.8428  -407.1451   717.7656 N3            1 RES     
   25029 S1        -597.9891  -406.3675   718.6692 S1            1 RES     
   25030 N3        -599.3162  -406.3376   717.6865 N3            1 RES     
   25031 C0        -598.8578  -406.9663   716.5737 C0            1 RES     
   25032 C0        -599.6320  -407.1803   715.4408 C0            1 RES     
   25033 H4        -597.4125  -408.7682   713.5141 H4            1 RES     
   25034 C5        -599.7677  -404.0972   710.4086 C5            1 RES     
   25035 C5        -598.4088  -404.1951   711.1038 C5            1 RES     
   25036 C5        -598.0109  -405.6320   711.4857 C5            1 RES     
   25037 C5        -597.8630  -406.5857   710.2838 C5            1 RES     
   25038 C5        -597.4128  -407.9790   710.7559 C5            1 RES     
   25039 C5        -597.4550  -409.0282   709.6358 C5            1 RES     
   25040 C5        -597.0815  -410.4439   710.1363 C5            1 RES     
   25041 C5        -595.5518  -410.7097   710.2931 C5            1 RES     
   25042 C5        -595.0443  -411.0513   711.7280 C5            1 RES     
   25043 C5        -595.7191  -412.3293   712.3061 C5            1 RES     
   25044 C5        -595.7134  -412.3533   713.8461 C5            1 RES     
   25045 C5        -596.7979  -413.3016   714.4007 C5            1 RES     
   25046 C5        -596.9798  -413.1056   715.9167 C5            1 RES     
   25047 C5        -598.2380  -413.7955   716.4737 C5            1 RES     
   25048 C5        -598.1969  -415.3170   716.3838 C5            1 RES     
   25049 C5        -593.4830  -411.1141   711.6734 C5            1 RES     
   25050 C0        -592.4884  -411.1276   712.8976 C0            1 RES     
   25051 C5        -591.0997  -411.6081   712.2898 C5            1 RES     
   25052 C5        -590.7381  -413.1023   712.5851 C5            1 RES     
   25053 C5        -590.0231  -413.3153   713.9601 C5            1 RES     
   25054 C5        -588.5441  -412.8663   714.0198 C5            1 RES     
   25055 C5        -587.9223  -412.9164   715.4273 C5            1 RES     
   25056 C5        -587.6597  -414.3279   715.9858 C5            1 RES     
   25057 C5        -586.6508  -415.1735   715.1790 C5            1 RES     
   25058 C5        -585.2619  -414.5347   715.0760 C5            1 RES     
   25059 C5        -590.0049  -413.8170   711.4015 C5            1 RES     
   25060 C5        -588.8481  -413.0548   710.7049 C5            1 RES     
   25061 C5        -588.0595  -413.9284   709.7032 C5            1 RES     
   25062 C5        -588.9129  -414.4993   708.5547 C5            1 RES     
   25063 C5        -588.1049  -415.3586   707.5614 C5            1 RES     
   25064 C5        -587.0747  -414.5503   706.7489 C5            1 RES     
   25065 C5        -586.2669  -415.4087   705.7588 C5            1 RES     
   25066 C5        -587.1182  -416.0469   704.6601 C5            1 RES     
   25067 H6        -599.7528  -404.6182   709.4299 H6            1 RES     
   25068 H6        -600.0081  -403.0291   710.2205 H6            1 RES     
   25069 H6        -600.5648  -404.5314   711.0486 H6            1 RES     
   25070 H6        -597.6287  -403.7481   710.4517 H6            1 RES     
   25071 H6        -598.4619  -403.5962   712.0400 H6            1 RES     
   25072 H6        -597.0417  -405.5814   712.0278 H6            1 RES     
   25073 H6        -598.7754  -406.0381   712.1843 H6            1 RES     
   25074 H6        -597.1223  -406.1823   709.5591 H6            1 RES     
   25075 H6        -598.8476  -406.6800   709.7795 H6            1 RES     
   25076 H6        -596.3955  -407.9136   711.1976 H6            1 RES     
   25077 H6        -598.1365  -408.3147   711.5242 H6            1 RES     
   25078 H6        -598.5100  -409.0675   709.2845 H6            1 RES     
   25079 H6        -596.8194  -408.7409   708.7707 H6            1 RES     
   25080 H6        -597.6690  -410.6516   711.0533 H6            1 RES     
   25081 H6        -597.4382  -411.1601   709.3658 H6            1 RES     
   25082 H6        -595.0224  -409.7958   709.9412 H6            1 RES     
   25083 H6        -595.2503  -411.5215   709.5962 H6            1 RES     
   25084 H6        -595.3979  -410.2183   712.2934 H6            1 RES     
   25085 H6        -596.7867  -412.2912   712.0297 H6            1 RES     
   25086 H6        -595.3242  -413.2666   711.8578 H6            1 RES     
   25087 H6        -594.7038  -412.5865   714.2457 H6            1 RES     
   25088 H6        -596.0028  -411.3382   714.1900 H6            1 RES     
   25089 H6        -596.5641  -414.3583   714.1492 H6            1 RES     
   25090 H6        -597.7666  -413.0316   713.9240 H6            1 RES     
   25091 H6        -596.0711  -413.4393   716.4609 H6            1 RES     
   25092 H6        -597.1204  -412.0186   716.1111 H6            1 RES     
   25093 H6        -599.1374  -413.4201   715.9362 H6            1 RES     
   25094 H6        -598.3426  -413.5158   717.5445 H6            1 RES     
   25095 H6        -597.3247  -415.7091   716.9474 H6            1 RES     
   25096 H6        -598.1430  -415.6523   715.3282 H6            1 RES     
   25097 H6        -599.1254  -415.7318   716.8320 H6            1 RES     
   25098 H6        -593.1317  -410.2529   711.0626 H6            1 RES     
   25099 H6        -593.2922  -412.0358   711.0756 H6            1 RES     
   25100 H6        -591.1496  -411.4828   711.1877 H6            1 RES     
   25101 H6        -590.2492  -410.9522   712.5218 H6            1 RES     
   25102 H6        -591.7052  -413.6493   712.6705 H6            1 RES     
   25103 H6        -590.6117  -412.7814   714.7374 H6            1 RES     
   25104 H6        -590.0467  -414.3980   714.2083 H6            1 RES     
   25105 H6        -587.9174  -413.4789   713.3488 H6            1 RES     
   25106 H6        -588.4778  -411.8239   713.6754 H6            1 RES     
   25107 H6        -586.9573  -412.3678   715.4050 H6            1 RES     
   25108 H6        -588.5815  -412.3684   716.1305 H6            1 RES     
   25109 H6        -588.6187  -414.8814   716.0587 H6            1 RES     
   25110 H6        -587.2599  -414.2143   717.0176 H6            1 RES     
   25111 H6        -587.0365  -415.3782   714.1593 H6            1 RES     
   25112 H6        -586.5380  -416.1514   715.6950 H6            1 RES     
   25113 H6        -584.8471  -414.3394   716.0879 H6            1 RES     
   25114 H6        -584.5754  -415.2239   714.5403 H6            1 RES     
   25115 H6        -585.2966  -413.5857   714.5027 H6            1 RES     
   25116 H6        -590.7641  -413.9983   710.6114 H6            1 RES     
   25117 H6        -589.6591  -414.8111   711.7601 H6            1 RES     
   25118 H6        -588.1065  -412.6785   711.4239 H6            1 RES     
   25119 H6        -589.2481  -412.1679   710.1738 H6            1 RES     
   25120 H6        -587.2561  -413.2873   709.2856 H6            1 RES     
   25121 H6        -587.5809  -414.7688   710.2528 H6            1 RES     
   25122 H6        -589.4178  -413.6751   708.0058 H6            1 RES     
   25123 H6        -589.6913  -415.1606   708.9893 H6            1 RES     
   25124 H6        -587.5959  -416.1814   708.1103 H6            1 RES     
   25125 H6        -588.8357  -415.8099   706.8589 H6            1 RES     
   25126 H6        -586.3409  -414.0875   707.4393 H6            1 RES     
   25127 H6        -587.5926  -413.7386   706.1929 H6            1 RES     
   25128 H6        -585.5182  -414.7498   705.2670 H6            1 RES     
   25129 H6        -585.7179  -416.2032   706.3091 H6            1 RES     
   25130 H6        -587.8430  -416.7719   705.0820 H6            1 RES     
   25131 H6        -586.4575  -416.5994   703.9588 H6            1 RES     
   25132 H6        -587.6635  -415.2648   704.0909 H6            1 RES     
   25133 C0        -603.9717  -405.1435   713.6090 C0            1 RES     
   25134 C0        -604.8410  -404.6723   714.7752 C0            1 RES     
   25135 C0        -604.4128  -405.1883   715.9523 C0            1 RES     
   25136 S1        -605.2938  -404.6536   717.2712 S1            1 RES     
   25137 C0        -606.3054  -403.6862   716.3002 C0            1 RES     
   25138 C0        -605.8862  -403.7698   714.9615 C0            1 RES     
   25139 C0        -603.2092  -405.9158   715.7409 C0            1 RES     
   25140 C0        -602.9075  -405.8490   714.4637 C0            1 RES     
   25141 C0        -601.5625  -406.3297   714.2072 C0            1 RES     
   25142 C0        -600.9653  -406.7571   715.3834 C0            1 RES     
   25143 S1        -602.0062  -406.6213   716.8512 S1            1 RES     
   25144 H2        -606.3009  -403.1509   714.1947 H2            1 RES     
   25145 H2        -601.0308  -406.2343   713.2762 H2            1 RES     
   25146 N3        -609.5086  -401.7048   716.2449 N3            1 RES     
   25147 C0        -608.4423  -402.4614   715.8577 C0            1 RES     
   25148 C0        -607.4411  -402.8486   716.7710 C0            1 RES     
   25149 C0        -607.5991  -402.4292   718.1023 C0            1 RES     
   25150 N3        -606.7273  -402.7114   719.1070 N3            1 RES     
   25151 S1        -607.4118  -401.9429   720.4014 S1            1 RES     
   25152 N3        -608.7776  -401.2547   719.7779 N3            1 RES     
   25153 C0        -608.7147  -401.6326   718.4751 C0            1 RES     
   25154 C0        -609.6668  -401.2790   717.5280 C0            1 RES     
   25155 H4        -608.3935  -402.7905   714.8347 H4            1 RES     
   25156 C5        -609.4756  -396.9505   713.5187 C5            1 RES     
   25157 C5        -608.1431  -397.6255   713.8473 C5            1 RES     
   25158 C5        -608.1952  -399.1623   713.7833 C5            1 RES     
   25159 C5        -608.5422  -399.7238   712.3904 C5            1 RES     
   25160 C5        -608.5185  -401.2620   712.4101 C5            1 RES     
   25161 C5        -609.0632  -401.8813   711.1151 C5            1 RES     
   25162 C5        -609.1144  -403.4267   711.1737 C5            1 RES     
   25163 C5        -607.7538  -404.1456   710.9154 C5            1 RES     
   25164 C5        -607.1925  -405.0204   712.0786 C5            1 RES     
   25165 C5        -608.1651  -406.1679   712.4789 C5            1 RES     
   25166 C5        -607.9518  -406.6421   713.9286 C5            1 RES     
   25167 C5        -609.2006  -407.3661   714.4761 C5            1 RES     
   25168 C5        -609.0926  -407.5794   715.9968 C5            1 RES     
   25169 C5        -610.4172  -408.0192   716.6460 C5            1 RES     
   25170 C5        -610.8964  -409.3949   716.1964 C5            1 RES     
   25171 C5        -605.7646  -405.5009   711.6606 C5            1 RES     
   25172 C0        -604.6696  -406.1511   712.5913 C0            1 RES     
   25173 C5        -603.6189  -406.8029   711.5913 C5            1 RES     
   25174 C5        -603.7361  -408.3566   711.4403 C5            1 RES     
   25175 C5        -602.9471  -409.1547   712.5300 C5            1 RES     
   25176 C5        -601.4100  -409.1777   712.3582 C5            1 RES     
   25177 C5        -600.6492  -409.8102   713.5378 C5            1 RES     
   25178 C5        -600.7944  -411.3376   713.6773 C5            1 RES     
   25179 C5        -600.2471  -412.1580   712.4893 C5            1 RES     
   25180 C5        -598.7538  -411.9345   712.2283 C5            1 RES     
   25181 C5        -603.4553  -408.8696   709.9886 C5            1 RES     
   25182 C5        -602.2209  -408.2944   709.2471 C5            1 RES     
   25183 C5        -601.9157  -409.0215   707.9180 C5            1 RES     
   25184 C5        -603.0622  -408.9672   706.8905 C5            1 RES     
   25185 C5        -602.7330  -409.6892   705.5683 C5            1 RES     
   25186 C5        -601.6176  -409.0023   704.7564 C5            1 RES     
   25187 C5        -601.2878  -409.7242   703.4374 C5            1 RES     
   25188 C5        -602.4478  -409.7466   702.4409 C5            1 RES     
   25189 H6        -609.7719  -397.1444   712.4679 H6            1 RES     
   25190 H6        -609.3718  -395.8516   713.6444 H6            1 RES     
   25191 H6        -610.2736  -397.3105   714.2023 H6            1 RES     
   25192 H6        -607.3584  -397.2455   713.1592 H6            1 RES     
   25193 H6        -607.8625  -397.3371   714.8847 H6            1 RES     
   25194 H6        -607.1983  -399.5473   714.0896 H6            1 RES     
   25195 H6        -608.9452  -399.5230   714.5215 H6            1 RES     
   25196 H6        -607.8191  -399.3514   711.6323 H6            1 RES     
   25197 H6        -609.5628  -399.3856   712.1132 H6            1 RES     
   25198 H6        -607.4859  -401.6176   712.6141 H6            1 RES     
   25199 H6        -609.1973  -401.5902   713.2215 H6            1 RES     
   25200 H6        -610.1097  -401.5178   711.0113 H6            1 RES     
   25201 H6        -608.4962  -401.5443   710.2208 H6            1 RES     
   25202 H6        -609.6028  -403.7196   712.1250 H6            1 RES     
   25203 H6        -609.7930  -403.7554   710.3581 H6            1 RES     
   25204 H6        -607.0059  -403.3562   710.6767 H6            1 RES     
   25205 H6        -607.8396  -404.7684   709.9987 H6            1 RES     
   25206 H6        -607.1667  -404.3251   712.8876 H6            1 RES     
   25207 H6        -609.1871  -405.7520   712.4669 H6            1 RES     
   25208 H6        -608.1706  -407.0044   711.7470 H6            1 RES     
   25209 H6        -607.0314  -407.2560   714.0248 H6            1 RES     
   25210 H6        -607.8367  -405.7336   714.5562 H6            1 RES     
   25211 H6        -609.3684  -408.3240   713.9388 H6            1 RES     
   25212 H6        -610.0813  -406.7074   714.3065 H6            1 RES     
   25213 H6        -608.2793  -408.2992   716.2290 H6            1 RES     
   25214 H6        -608.8357  -406.6033   716.4662 H6            1 RES     
   25215 H6        -611.2069  -407.2658   716.4279 H6            1 RES     
   25216 H6        -610.2717  -408.0475   717.7478 H6            1 RES     
   25217 H6        -610.1339  -410.1635   716.4414 H6            1 RES     
   25218 H6        -611.1055  -409.4077   715.1074 H6            1 RES     
   25219 H6        -611.8374  -409.6441   716.7326 H6            1 RES     
   25220 H6        -605.2367  -404.6338   711.2048 H6            1 RES     
   25221 H6        -605.9763  -406.2220   710.8368 H6            1 RES     
   25222 H6        -603.7784  -406.3518   710.5894 H6            1 RES     
   25223 H6        -602.5753  -406.5105   711.7723 H6            1 RES     
   25224 H6        -604.8078  -408.6095   711.6111 H6            1 RES     
   25225 H6        -603.2099  -408.7288   713.5226 H6            1 RES     
   25226 H6        -603.2936  -410.2102   712.5172 H6            1 RES     
   25227 H6        -601.1228  -409.7174   711.4393 H6            1 RES     
   25228 H6        -601.0504  -408.1428   712.2610 H6            1 RES     
   25229 H6        -599.5701  -409.5737   713.4274 H6            1 RES     
   25230 H6        -600.9837  -409.3298   714.4794 H6            1 RES     
   25231 H6        -601.8625  -411.5951   713.8330 H6            1 RES     
   25232 H6        -600.2391  -411.6481   714.5897 H6            1 RES     
   25233 H6        -600.8178  -411.9382   711.5639 H6            1 RES     
   25234 H6        -600.3940  -413.2344   712.7236 H6            1 RES     
   25235 H6        -598.1602  -412.1688   713.1375 H6            1 RES     
   25236 H6        -598.4173  -412.6007   711.4059 H6            1 RES     
   25237 H6        -598.5517  -410.8897   711.9154 H6            1 RES     
   25238 H6        -604.3344  -408.5906   709.3699 H6            1 RES     
   25239 H6        -603.4124  -409.9803   710.0178 H6            1 RES     
   25240 H6        -601.3034  -408.3694   709.8480 H6            1 RES     
   25241 H6        -602.3741  -407.2160   709.0420 H6            1 RES     
   25242 H6        -601.0119  -408.5393   707.4917 H6            1 RES     
   25243 H6        -601.6711  -410.0850   708.1338 H6            1 RES     
   25244 H6        -603.3366  -407.9114   706.6776 H6            1 RES     
   25245 H6        -603.9469  -409.4799   707.3225 H6            1 RES     
   25246 H6        -602.4543  -410.7448   705.7806 H6            1 RES     
   25247 H6        -603.6630  -409.6905   704.9630 H6            1 RES     
   25248 H6        -600.6827  -408.9877   705.3522 H6            1 RES     
   25249 H6        -601.9093  -407.9520   704.5367 H6            1 RES     
   25250 H6        -600.4397  -409.1886   702.9575 H6            1 RES     
   25251 H6        -600.9622  -410.7658   703.6487 H6            1 RES     
   25252 H6        -603.3054  -410.3289   702.8340 H6            1 RES     
   25253 H6        -602.1131  -410.2321   701.4997 H6            1 RES     
   25254 H6        -602.7767  -408.7119   702.2080 H6            1 RES     
   25255 C0        -613.2958  -397.6611   717.2486 C0            1 RES     
   25256 C0        -613.7869  -397.3273   718.6576 C0            1 RES     
   25257 C0        -613.3936  -398.2638   719.5540 C0            1 RES     
   25258 S1        -613.8531  -397.9133   721.1249 S1            1 RES     
   25259 C0        -614.6117  -396.4605   720.6603 C0            1 RES     
   25260 C0        -614.4362  -396.2631   719.2800 C0            1 RES     
   25261 C0        -612.5419  -399.2052   718.9130 C0            1 RES     
   25262 C0        -612.4174  -398.8553   717.6526 C0            1 RES     
   25263 C0        -611.3583  -399.5977   716.9947 C0            1 RES     
   25264 C0        -610.7780  -400.5005   717.8729 C0            1 RES     
   25265 S1        -611.4982  -400.5132   719.5275 S1            1 RES     
   25266 H2        -614.7251  -395.3564   718.7926 H2            1 RES     
   25267 H2        -610.9611  -399.3876   716.0166 H2            1 RES     
   25268 N3        -616.9499  -393.7327   721.7923 N3            1 RES     
   25269 C0        -616.2607  -394.6107   721.0091 C0            1 RES     
   25270 C0        -615.3272  -395.5134   721.5570 C0            1 RES     
   25271 C0        -615.1487  -395.4753   722.9498 C0            1 RES     
   25272 N3        -614.2882  -396.2723   723.6378 N3            1 RES     
   25273 S1        -614.4902  -395.7562   725.1959 S1            1 RES     
   25274 N3        -615.6234  -394.5608   725.0745 N3            1 RES     
   25275 C0        -615.8727  -394.5426   723.7398 C0            1 RES     
   25276 C0        -616.7763  -393.6746   723.1410 C0            1 RES     
   25277 H4        -616.4678  -394.6259   719.9536 H4            1 RES     
   25278 C5        -615.7235  -388.5991   720.3165 C5            1 RES     
   25279 C5        -614.6584  -389.6869   720.1695 C5            1 RES     
   25280 C5        -615.2261  -391.0580   719.7618 C5            1 RES     
   25281 C5        -615.9315  -391.0660   718.3913 C5            1 RES     
   25282 C5        -616.4171  -392.4843   718.0453 C5            1 RES     
   25283 C5        -617.3123  -392.5182   716.7985 C5            1 RES     
   25284 C5        -617.8648  -393.9333   716.5046 C5            1 RES     
   25285 C5        -616.8703  -394.8974   715.7858 C5            1 RES     
   25286 C5        -616.4740  -396.1951   716.5553 C5            1 RES     
   25287 C5        -617.7060  -397.0875   716.8851 C5            1 RES     
   25288 C5        -617.4612  -398.0051   718.0975 C5            1 RES     
   25289 C5        -618.7896  -398.4759   718.7276 C5            1 RES     
   25290 C5        -618.5464  -399.1462   720.0918 C5            1 RES     
   25291 C5        -619.8370  -399.3656   720.9016 C5            1 RES     
   25292 C5        -620.8037  -400.3567   720.2629 C5            1 RES     
   25293 C5        -615.3601  -396.9134   715.7260 C5            1 RES     
   25294 C0        -614.4240  -398.0879   716.2078 C0            1 RES     
   25295 C5        -613.8004  -398.6865   714.8730 C5            1 RES     
   25296 C5        -614.4466  -400.0293   714.3937 C5            1 RES     
   25297 C5        -613.8226  -401.2995   715.0604 C5            1 RES     
   25298 C5        -612.4205  -401.7025   714.5463 C5            1 RES     
   25299 C5        -611.7554  -402.8396   715.3429 C5            1 RES     
   25300 C5        -612.3782  -404.2356   715.1508 C5            1 RES     
   25301 C5        -612.3064  -404.7916   713.7122 C5            1 RES     
   25302 C5        -610.8759  -404.9309   713.1811 C5            1 RES     
   25303 C5        -614.5584  -400.1524   712.8376 C5            1 RES     
   25304 C5        -613.3200  -399.7568   711.9925 C5            1 RES     
   25305 C5        -613.4629  -400.1182   710.4966 C5            1 RES     
   25306 C5        -614.6585  -399.4454   709.7957 C5            1 RES     
   25307 C5        -614.7764  -399.8109   708.3023 C5            1 RES     
   25308 C5        -613.6218  -399.2593   707.4435 C5            1 RES     
   25309 C5        -613.7386  -399.6258   705.9530 C5            1 RES     
   25310 C5        -614.9679  -399.0285   705.2665 C5            1 RES     
   25311 H6        -616.2115  -388.3855   719.3440 H6            1 RES     
   25312 H6        -615.2443  -387.6607   720.6686 H6            1 RES     
   25313 H6        -616.4915  -388.9037   721.0588 H6            1 RES     
   25314 H6        -613.8968  -389.3588   719.4306 H6            1 RES     
   25315 H6        -614.1555  -389.8057   721.1549 H6            1 RES     
   25316 H6        -614.3810  -391.7798   719.7370 H6            1 RES     
   25317 H6        -615.9419  -391.3928   720.5448 H6            1 RES     
   25318 H6        -615.2396  -390.7072   717.5983 H6            1 RES     
   25319 H6        -616.8101  -390.3888   718.4380 H6            1 RES     
   25320 H6        -615.5433  -393.1593   717.9226 H6            1 RES     
   25321 H6        -617.0454  -392.8307   718.8891 H6            1 RES     
   25322 H6        -618.1824  -391.8612   717.0209 H6            1 RES     
   25323 H6        -616.7969  -392.1078   715.9035 H6            1 RES     
   25324 H6        -618.2842  -394.3420   717.4460 H6            1 RES     
   25325 H6        -618.7212  -393.8042   715.8091 H6            1 RES     
   25326 H6        -615.9442  -394.3164   715.5759 H6            1 RES     
   25327 H6        -617.2856  -395.1742   714.7926 H6            1 RES     
   25328 H6        -616.1057  -395.8036   717.4770 H6            1 RES     
   25329 H6        -618.5231  -396.4165   717.2010 H6            1 RES     
   25330 H6        -618.0914  -397.6363   715.9987 H6            1 RES     
   25331 H6        -616.7929  -398.8531   717.8377 H6            1 RES     
   25332 H6        -616.9643  -397.3908   718.8774 H6            1 RES     
   25333 H6        -619.3394  -399.1469   718.0334 H6            1 RES     
   25334 H6        -619.4164  -397.5766   718.9194 H6            1 RES     
   25335 H6        -617.9942  -400.1007   719.9601 H6            1 RES     
   25336 H6        -617.9171  -398.4636   720.7060 H6            1 RES     
   25337 H6        -620.3543  -398.3912   721.0492 H6            1 RES     
   25338 H6        -619.5563  -399.7548   721.9044 H6            1 RES     
   25339 H6        -620.3132  -401.3452   720.1434 H6            1 RES     
   25340 H6        -621.1557  -399.9908   719.2770 H6            1 RES     
   25341 H6        -621.6890  -400.4767   720.9239 H6            1 RES     
   25342 H6        -614.6438  -396.1360   715.3785 H6            1 RES     
   25343 H6        -615.9125  -397.2719   714.8261 H6            1 RES     
   25344 H6        -613.9399  -397.9362   714.0666 H6            1 RES     
   25345 H6        -612.7044  -398.7657   714.8775 H6            1 RES     
   25346 H6        -615.5063  -400.0091   714.7377 H6            1 RES     
   25347 H6        -613.7873  -401.1268   716.1579 H6            1 RES     
   25348 H6        -614.4980  -402.1630   714.8798 H6            1 RES     
   25349 H6        -612.4606  -402.0076   713.4863 H6            1 RES     
   25350 H6        -611.7552  -400.8293   714.6150 H6            1 RES     
   25351 H6        -610.6857  -402.8946   715.0507 H6            1 RES     
   25352 H6        -611.7759  -402.5821   716.4211 H6            1 RES     
   25353 H6        -613.4382  -404.2161   715.4786 H6            1 RES     
   25354 H6        -611.8353  -404.9425   715.8163 H6            1 RES     
   25355 H6        -612.8956  -404.1596   713.0168 H6            1 RES     
   25356 H6        -612.7680  -405.8027   713.7155 H6            1 RES     
   25357 H6        -610.2724  -405.5780   713.8527 H6            1 RES     
   25358 H6        -610.8984  -405.3937   712.1718 H6            1 RES     
   25359 H6        -610.3844  -403.9413   713.0837 H6            1 RES     
   25360 H6        -615.3727  -399.4691   712.5155 H6            1 RES     
   25361 H6        -614.8829  -401.1881   712.5960 H6            1 RES     
   25362 H6        -612.4048  -400.2592   712.3366 H6            1 RES     
   25363 H6        -613.1337  -398.6681   712.0848 H6            1 RES     
   25364 H6        -612.5196  -399.8068   710.0025 H6            1 RES     
   25365 H6        -613.5575  -401.2221   710.3973 H6            1 RES     
   25366 H6        -614.5939  -398.3410   709.9027 H6            1 RES     
   25367 H6        -615.5934  -399.7917   710.2839 H6            1 RES     
   25368 H6        -614.8370  -400.9163   708.1938 H6            1 RES     
   25369 H6        -615.7293  -399.3735   707.9389 H6            1 RES     
   25370 H6        -612.6613  -399.6832   707.7999 H6            1 RES     
   25371 H6        -613.5761  -398.1531   707.5467 H6            1 RES     
   25372 H6        -612.8370  -399.2344   705.4331 H6            1 RES     
   25373 H6        -613.7510  -400.7311   705.8362 H6            1 RES     
   25374 H6        -615.9060  -399.4345   705.6954 H6            1 RES     
   25375 H6        -614.9488  -399.2909   704.1874 H6            1 RES     
   25376 H6        -614.9639  -397.9222   705.3619 H6            1 RES     
   25377 C0        -619.0000  -389.2658   724.5391 C0            1 RES     
   25378 C0        -619.1497  -389.2349   726.0605 C0            1 RES     
   25379 C0        -618.9680  -390.4637   726.6012 C0            1 RES     
   25380 S1        -619.0601  -390.4739   728.2724 S1            1 RES     
   25381 C0        -619.3507  -388.7968   728.3431 C0            1 RES     
   25382 C0        -619.3150  -388.2618   727.0441 C0            1 RES     
   25383 C0        -618.5759  -391.3760   725.5831 C0            1 RES     
   25384 C0        -618.5203  -390.7224   724.4445 C0            1 RES     
   25385 C0        -617.8710  -391.5063   723.4103 C0            1 RES     
   25386 C0        -617.5062  -392.7515   723.8994 C0            1 RES     
   25387 S1        -617.9502  -393.0448   725.6237 S1            1 RES     
   25388 H2        -619.3519  -387.2093   726.8599 H2            1 RES     
   25389 H2        -617.5679  -391.1397   722.4447 H2            1 RES     
   25390 N3        -620.4678  -385.9775   730.5776 N3            1 RES     
   25391 C0        -620.2261  -386.7446   729.4765 C0            1 RES     
   25392 C0        -619.5781  -387.9925   729.5736 C0            1 RES     
   25393 C0        -619.2036  -388.4154   730.8598 C0            1 RES     
   25394 N3        -618.5690  -389.5871   731.1306 N3            1 RES     
   25395 S1        -618.3677  -389.5146   732.7704 S1            1 RES     
   25396 N3        -619.0450  -388.0678   733.1901 N3            1 RES     
   25397 C0        -619.4587  -387.5906   731.9880 C0            1 RES     
   25398 C0        -620.0974  -386.3679   731.8279 C0            1 RES     
   25399 H4        -620.5723  -386.3914   728.5212 H4            1 RES     
   25400 C5        -617.8268  -381.1987   730.1044 C5            1 RES     
   25401 C5        -617.2149  -382.4493   729.4714 C5            1 RES     
   25402 C5        -618.2567  -383.4236   728.8934 C5            1 RES     
   25403 C5        -619.1095  -382.8315   727.7540 C5            1 RES     
   25404 C5        -620.0818  -383.8899   727.2050 C5            1 RES     
   25405 C5        -621.1029  -383.3043   726.2193 C5            1 RES     
   25406 C5        -622.1292  -384.3562   725.7353 C5            1 RES     
   25407 C5        -621.6223  -385.3067   724.6062 C5            1 RES     
   25408 C5        -621.5754  -386.8293   724.9417 C5            1 RES     
   25409 C5        -622.9746  -387.3950   725.3228 C5            1 RES     
   25410 C5        -622.8808  -388.6573   726.2002 C5            1 RES     
   25411 C5        -624.1879  -388.8984   726.9854 C5            1 RES     
   25412 C5        -623.9923  -389.9786   728.0645 C5            1 RES     
   25413 C5        -625.1554  -390.0532   729.0699 C5            1 RES     
   25414 C5        -626.4757  -390.5003   728.4521 C5            1 RES     
   25415 C5        -620.8910  -387.5564   723.7386 C5            1 RES     
   25416 C0        -620.3400  -389.0341   723.7092 C0            1 RES     
   25417 C5        -620.1441  -389.3659   722.1663 C5            1 RES     
   25418 C5        -621.2597  -390.2712   721.5449 C5            1 RES     
   25419 C5        -621.0058  -391.8026   721.7383 C5            1 RES     
   25420 C5        -619.9037  -392.4147   720.8420 C5            1 RES     
   25421 C5        -619.5489  -393.8742   721.1802 C5            1 RES     
   25422 C5        -620.6202  -394.9186   720.8127 C5            1 RES     
   25423 C5        -620.9395  -395.0260   719.3059 C5            1 RES     
   25424 C5        -619.7258  -395.4002   718.4488 C5            1 RES     
   25425 C5        -621.6231  -389.8968   720.0694 C5            1 RES     
   25426 C5        -620.4550  -389.6362   719.0834 C5            1 RES     
   25427 C5        -620.9181  -389.4886   717.6163 C5            1 RES     
   25428 C5        -621.9083  -388.3325   717.3798 C5            1 RES     
   25429 C5        -622.3490  -388.1963   715.9083 C5            1 RES     
   25430 C5        -621.2093  -387.7655   714.9648 C5            1 RES     
   25431 C5        -621.6489  -387.6314   713.4957 C5            1 RES     
   25432 C5        -622.6936  -386.5390   713.2627 C5            1 RES     
   25433 H6        -618.3475  -380.5817   729.3444 H6            1 RES     
   25434 H6        -617.0190  -380.5789   730.5487 H6            1 RES     
   25435 H6        -618.5403  -381.4783   730.9084 H6            1 RES     
   25436 H6        -616.4992  -382.1474   728.6775 H6            1 RES     
   25437 H6        -616.6471  -382.9877   730.2624 H6            1 RES     
   25438 H6        -617.7114  -384.3136   728.5110 H6            1 RES     
   25439 H6        -618.9258  -383.7574   729.7171 H6            1 RES     
   25440 H6        -618.4562  -382.4660   726.9319 H6            1 RES     
   25441 H6        -619.6979  -381.9792   728.1543 H6            1 RES     
   25442 H6        -619.5079  -384.7167   726.7344 H6            1 RES     
   25443 H6        -620.6646  -384.2768   728.0638 H6            1 RES     
   25444 H6        -621.6653  -382.5243   726.7792 H6            1 RES     
   25445 H6        -620.6115  -382.8123   725.3525 H6            1 RES     
   25446 H6        -622.5241  -384.8874   726.6248 H6            1 RES     
   25447 H6        -622.9828  -383.7940   725.3005 H6            1 RES     
   25448 H6        -620.5949  -384.9747   724.3348 H6            1 RES     
   25449 H6        -622.2408  -385.1522   723.6956 H6            1 RES     
   25450 H6        -620.9727  -386.8449   725.8221 H6            1 RES     
   25451 H6        -623.4698  -386.6445   725.9624 H6            1 RES     
   25452 H6        -623.6406  -387.5288   724.4430 H6            1 RES     
   25453 H6        -622.5752  -389.5442   725.6058 H6            1 RES     
   25454 H6        -622.1040  -388.4638   726.9694 H6            1 RES     
   25455 H6        -625.0208  -389.1540   726.2959 H6            1 RES     
   25456 H6        -624.4472  -387.9564   727.5181 H6            1 RES     
   25457 H6        -623.8123  -390.9677   727.5926 H6            1 RES     
   25458 H6        -623.0925  -389.7115   728.6631 H6            1 RES     
   25459 H6        -625.2939  -389.0604   729.5536 H6            1 RES     
   25460 H6        -624.8821  -390.7813   729.8643 H6            1 RES     
   25461 H6        -626.3629  -391.5067   727.9977 H6            1 RES     
   25462 H6        -626.8208  -389.7784   727.6843 H6            1 RES     
   25463 H6        -627.2487  -390.5544   729.2487 H6            1 RES     
   25464 H6        -620.0135  -386.9456   723.4301 H6            1 RES     
   25465 H6        -621.6514  -387.4654   722.9281 H6            1 RES     
   25466 H6        -620.1383  -388.4049   721.6102 H6            1 RES     
   25467 H6        -619.1474  -389.7477   721.9052 H6            1 RES     
   25468 H6        -622.1934  -390.0554   722.1137 H6            1 RES     
   25469 H6        -620.7616  -391.9758   722.8088 H6            1 RES     
   25470 H6        -621.9477  -392.3490   721.5179 H6            1 RES     
   25471 H6        -620.1909  -392.3721   719.7771 H6            1 RES     
   25472 H6        -618.9837  -391.8239   720.9611 H6            1 RES     
   25473 H6        -618.6104  -394.1397   720.6499 H6            1 RES     
   25474 H6        -619.3315  -393.9485   722.2647 H6            1 RES     
   25475 H6        -621.5566  -394.6987   721.3661 H6            1 RES     
   25476 H6        -620.2551  -395.9121   721.1548 H6            1 RES     
   25477 H6        -621.3768  -394.0792   718.9285 H6            1 RES     
   25478 H6        -621.7052  -395.8213   719.1769 H6            1 RES     
   25479 H6        -619.2834  -396.3578   718.7970 H6            1 RES     
   25480 H6        -620.0419  -395.5215   717.3911 H6            1 RES     
   25481 H6        -618.9525  -394.6054   718.4770 H6            1 RES     
   25482 H6        -622.2011  -388.9491   720.1077 H6            1 RES     
   25483 H6        -622.3035  -390.6815   719.6722 H6            1 RES     
   25484 H6        -619.7198  -390.4534   719.0855 H6            1 RES     
   25485 H6        -619.9070  -388.7206   719.3831 H6            1 RES     
   25486 H6        -620.0040  -389.3247   717.0092 H6            1 RES     
   25487 H6        -621.3866  -390.4418   717.2859 H6            1 RES     
   25488 H6        -621.4665  -387.3726   717.7244 H6            1 RES     
   25489 H6        -622.8269  -388.5288   717.9713 H6            1 RES     
   25490 H6        -622.7876  -389.1577   715.5612 H6            1 RES     
   25491 H6        -623.1437  -387.4223   715.8815 H6            1 RES     
   25492 H6        -620.4040  -388.5273   714.9865 H6            1 RES     
   25493 H6        -620.7850  -386.7975   715.3105 H6            1 RES     
   25494 H6        -620.7508  -387.3751   712.8922 H6            1 RES     
   25495 H6        -622.0436  -388.6040   713.1298 H6            1 RES     
   25496 H6        -623.6433  -386.7718   713.7850 H6            1 RES     
   25497 H6        -622.9142  -386.4684   712.1764 H6            1 RES     
   25498 H6        -622.3093  -385.5569   713.6104 H6            1 RES     
   25499 C0        -620.5125  -382.1223   734.6809 C0            1 RES     
   25500 C0        -620.4286  -382.4973   736.1609 C0            1 RES     
   25501 C0        -620.5911  -383.8296   736.3444 C0            1 RES     
   25502 S1        -620.4461  -384.3021   737.9436 S1            1 RES     
   25503 C0        -620.1507  -382.7083   738.4676 C0            1 RES     
   25504 C0        -620.1219  -381.8492   737.3558 C0            1 RES     
   25505 C0        -620.6709  -384.4757   735.0800 C0            1 RES     
   25506 C0        -620.5618  -383.5608   734.1432 C0            1 RES     
   25507 C0        -620.3612  -384.1572   732.8356 C0            1 RES     
   25508 C0        -620.3656  -385.5409   732.9252 C0            1 RES     
   25509 S1        -620.6354  -386.1887   734.5877 S1            1 RES     
   25510 H2        -619.8328  -380.8230   737.4357 H2            1 RES     
   25511 H2        -620.0922  -383.6248   731.9395 H2            1 RES     
   25512 N3        -619.9437  -380.4714   741.4913 N3            1 RES     
   25513 C0        -620.1272  -380.9182   740.2162 C0            1 RES     
   25514 C0        -619.9232  -382.2693   739.8706 C0            1 RES     
   25515 C0        -619.5340  -383.1375   740.9041 C0            1 RES     
   25516 N3        -619.2930  -384.4661   740.7436 N3            1 RES     
   25517 S1        -618.8512  -384.9363   742.2663 S1            1 RES     
   25518 N3        -618.9440  -383.5464   743.1537 N3            1 RES     
   25519 C0        -619.3400  -382.6421   742.2213 C0            1 RES     
   25520 C0        -619.5525  -381.2982   742.4993 C0            1 RES     
   25521 H4        -620.4669  -380.2185   739.4731 H4            1 RES     
   25522 C5        -615.9603  -376.7079   741.5649 C5            1 RES     
   25523 C5        -615.8934  -377.8378   740.5362 C5            1 RES     
   25524 C5        -617.2696  -378.2661   739.9966 C5            1 RES     
   25525 C5        -618.0284  -377.1517   739.2493 C5            1 RES     
   25526 C5        -619.3636  -377.6850   738.7017 C5            1 RES     
   25527 C5        -620.2600  -376.5742   738.1362 C5            1 RES     
   25528 C5        -621.6343  -377.1054   737.6639 C5            1 RES     
   25529 C5        -621.6352  -377.7862   736.2598 C5            1 RES     
   25530 C5        -622.0498  -379.2892   736.2109 C5            1 RES     
   25531 C5        -623.4894  -379.5242   736.7544 C5            1 RES     
   25532 C5        -623.6978  -380.9610   737.2684 C5            1 RES     
   25533 C5        -624.8870  -381.0436   738.2493 C5            1 RES     
   25534 C5        -624.9118  -382.4017   738.9736 C5            1 RES     
   25535 C5        -625.8806  -382.4370   740.1693 C5            1 RES     
   25536 C5        -627.3472  -382.2936   739.7779 C5            1 RES     
   25537 C5        -621.8214  -379.7941   734.7489 C5            1 RES     
   25538 C0        -621.8019  -381.2909   734.2519 C0            1 RES     
   25539 C5        -621.9456  -381.1978   732.6709 C5            1 RES     
   25540 C5        -623.3740  -381.5296   732.1229 C5            1 RES     
   25541 C5        -623.6182  -383.0572   731.8910 C5            1 RES     
   25542 C5        -622.9190  -383.6643   730.6520 C5            1 RES     
   25543 C5        -623.0250  -385.1969   730.5511 C5            1 RES     
   25544 C5        -624.4225  -385.7427   730.2009 C5            1 RES     
   25545 C5        -624.9673  -385.3101   728.8225 C5            1 RES     
   25546 C5        -624.0795  -385.7426   727.6509 C5            1 RES     
   25547 C5        -623.7956  -380.6535   730.8966 C5            1 RES     
   25548 C5        -622.7577  -380.4552   729.7617 C5            1 RES     
   25549 C5        -623.3463  -379.7608   728.5127 C5            1 RES     
   25550 C5        -623.9195  -378.3565   728.7821 C5            1 RES     
   25551 C5        -624.4917  -377.6776   727.5213 C5            1 RES     
   25552 C5        -623.4178  -377.3282   726.4727 C5            1 RES     
   25553 C5        -623.9894  -376.6521   725.2134 C5            1 RES     
   25554 C5        -624.6341  -375.2918   725.4835 C5            1 RES     
   25555 H6        -616.3479  -375.7752   741.1074 H6            1 RES     
   25556 H6        -614.9388  -376.4986   741.9479 H6            1 RES     
   25557 H6        -616.6060  -376.9981   742.4208 H6            1 RES     
   25558 H6        -615.2368  -377.5308   739.6945 H6            1 RES     
   25559 H6        -615.4315  -378.7210   741.0307 H6            1 RES     
   25560 H6        -617.1100  -379.1210   739.3042 H6            1 RES     
   25561 H6        -617.8891  -378.6240   740.8485 H6            1 RES     
   25562 H6        -617.4129  -376.7608   738.4098 H6            1 RES     
   25563 H6        -618.2382  -376.3244   739.9595 H6            1 RES     
   25564 H6        -619.1686  -378.4643   737.9343 H6            1 RES     
   25565 H6        -619.9153  -378.1260   739.5550 H6            1 RES     
   25566 H6        -620.4473  -375.8670   738.9746 H6            1 RES     
   25567 H6        -619.7598  -376.0091   737.3206 H6            1 RES     
   25568 H6        -622.0543  -377.7401   738.4701 H6            1 RES     
   25569 H6        -622.3049  -376.2243   737.5762 H6            1 RES     
   25570 H6        -620.6048  -377.6922   735.8491 H6            1 RES     
   25571 H6        -622.2886  -377.2046   735.5738 H6            1 RES     
   25572 H6        -621.3693  -379.7305   736.9042 H6            1 RES     
   25573 H6        -623.6125  -378.8862   737.6463 H6            1 RES     
   25574 H6        -624.2784  -379.2018   736.0410 H6            1 RES     
   25575 H6        -623.7904  -381.6836   736.4302 H6            1 RES     
   25576 H6        -622.8011  -381.2277   737.8662 H6            1 RES     
   25577 H6        -625.8455  -380.8412   737.7251 H6            1 RES     
   25578 H6        -624.7416  -380.2656   739.0315 H6            1 RES     
   25579 H6        -625.1384  -383.2182   738.2557 H6            1 RES     
   25580 H6        -623.8999  -382.5857   739.3995 H6            1 RES     
   25581 H6        -625.6124  -381.6322   740.8898 H6            1 RES     
   25582 H6        -625.7559  -383.4117   740.6890 H6            1 RES     
   25583 H6        -627.6397  -383.1121   739.0876 H6            1 RES     
   25584 H6        -627.5372  -381.3121   739.2979 H6            1 RES     
   25585 H6        -627.9746  -382.3588   740.6929 H6            1 RES     
   25586 H6        -620.8433  -379.3923   734.4021 H6            1 RES     
   25587 H6        -622.6141  -379.2599   734.1748 H6            1 RES     
   25588 H6        -621.6993  -380.1584   732.3680 H6            1 RES     
   25589 H6        -621.1793  -381.7506   732.1102 H6            1 RES     
   25590 H6        -624.0935  -381.2363   732.9217 H6            1 RES     
   25591 H6        -623.2979  -383.5975   732.8081 H6            1 RES     
   25592 H6        -624.7092  -383.2273   731.7671 H6            1 RES     
   25593 H6        -623.3221  -383.2330   729.7194 H6            1 RES     
   25594 H6        -621.8480  -383.4178   730.6953 H6            1 RES     
   25595 H6        -622.3120  -385.5483   729.7760 H6            1 RES     
   25596 H6        -622.6948  -385.6434   731.5106 H6            1 RES     
   25597 H6        -625.1455  -385.4403   730.9866 H6            1 RES     
   25598 H6        -624.3637  -386.8535   730.2102 H6            1 RES     
   25599 H6        -625.1139  -384.2113   728.7851 H6            1 RES     
   25600 H6        -625.9636  -385.7839   728.6872 H6            1 RES     
   25601 H6        -623.9358  -386.8441   727.6570 H6            1 RES     
   25602 H6        -624.5629  -385.4550   726.6933 H6            1 RES     
   25603 H6        -623.0904  -385.2419   727.6891 H6            1 RES     
   25604 H6        -624.0148  -379.6361   731.2844 H6            1 RES     
   25605 H6        -624.7463  -381.0631   730.4908 H6            1 RES     
   25606 H6        -622.3428  -381.4095   729.4071 H6            1 RES     
   25607 H6        -621.9006  -379.8602   730.1356 H6            1 RES     
   25608 H6        -622.5244  -379.6904   727.7708 H6            1 RES     
   25609 H6        -624.1461  -380.4036   728.0831 H6            1 RES     
   25610 H6        -623.1404  -377.7043   729.2327 H6            1 RES     
   25611 H6        -624.7586  -378.4508   729.5026 H6            1 RES     
   25612 H6        -625.2686  -378.3313   727.0673 H6            1 RES     
   25613 H6        -624.9799  -376.7388   727.8557 H6            1 RES     
   25614 H6        -622.9164  -378.2572   726.1339 H6            1 RES     
   25615 H6        -622.6524  -376.6640   726.9302 H6            1 RES     
   25616 H6        -623.1512  -376.4938   724.5001 H6            1 RES     
   25617 H6        -624.7317  -377.3230   724.7292 H6            1 RES     
   25618 H6        -625.5240  -375.3903   726.1371 H6            1 RES     
   25619 H6        -624.9687  -374.8474   724.5222 H6            1 RES     
   25620 H6        -623.9009  -374.6040   725.9553 H6            1 RES     
   25621 C0        -618.1306  -378.1361   746.2830 C0            1 RES     
   25622 C0        -617.9693  -378.9355   747.5765 C0            1 RES     
   25623 C0        -618.5373  -380.1611   747.4754 C0            1 RES     
   25624 S1        -618.3346  -381.1017   748.8451 S1            1 RES     
   25625 C0        -617.4566  -379.8815   749.6464 C0            1 RES     
   25626 C0        -617.3006  -378.7791   748.7889 C0            1 RES     
   25627 C0        -619.0034  -380.3592   746.1465 C0            1 RES     
   25628 C0        -618.7293  -379.2796   745.4495 C0            1 RES     
   25629 C0        -618.9235  -379.4984   744.0282 C0            1 RES     
   25630 C0        -619.3743  -380.7881   743.7908 C0            1 RES     
   25631 S1        -619.6079  -381.7907   745.2728 S1            1 RES     
   25632 H2        -616.6791  -377.9459   749.0391 H2            1 RES     
   25633 H2        -618.6215  -378.8253   743.2444 H2            1 RES     
   25634 N3        -616.0972  -378.7801   752.9824 N3            1 RES     
   25635 C0        -616.5954  -378.7637   751.7132 C0            1 RES     
   25636 C0        -616.9020  -379.9548   751.0248 C0            1 RES     
   25637 C0        -616.6822  -381.1601   751.7119 C0            1 RES     
   25638 N3        -616.9208  -382.3952   751.1955 N3            1 RES     
   25639 S1        -616.4512  -383.3948   752.4265 S1            1 RES     
   25640 N3        -615.9521  -382.3580   753.6114 N3            1 RES     
   25641 C0        -616.1521  -381.1474   753.0299 C0            1 RES     
   25642 C0        -615.8653  -379.9407   753.6546 C0            1 RES     
   25643 H4        -616.7843  -377.8113   751.2502 H4            1 RES     
   25644 C5        -611.1219  -376.4821   753.0336 C5            1 RES     
   25645 C5        -611.5787  -377.2326   751.7816 C5            1 RES     
   25646 C5        -613.0803  -377.0791   751.4812 C5            1 RES     
   25647 C5        -613.5230  -375.6286   751.2055 C5            1 RES     
   25648 C5        -615.0223  -375.5803   750.8638 C5            1 RES     
   25649 C5        -615.5691  -374.1476   750.7902 C5            1 RES     
   25650 C5        -617.0937  -374.1084   750.5290 C5            1 RES     
   25651 C5        -617.5174  -374.3194   749.0420 C5            1 RES     
   25652 C5        -618.4098  -375.5622   748.7382 C5            1 RES     
   25653 C5        -619.7545  -375.5313   749.5217 C5            1 RES     
   25654 C5        -620.3537  -376.9362   749.7193 C5            1 RES     
   25655 C5        -621.3529  -376.9643   750.8957 C5            1 RES     
   25656 C5        -621.7252  -378.4106   751.2692 C5            1 RES     
   25657 C5        -622.4731  -378.5203   752.6101 C5            1 RES     
   25658 C5        -623.8484  -377.8623   752.6038 C5            1 RES     
   25659 C5        -618.5693  -375.6601   747.1860 C5            1 RES     
   25660 C0        -619.1176  -376.8881   746.3618 C0            1 RES     
   25661 C5        -619.4424  -376.2999   744.9205 C5            1 RES     
   25662 C5        -620.9618  -376.0412   744.6465 C5            1 RES     
   25663 C5        -621.7292  -377.3008   744.1253 C5            1 RES     
   25664 C5        -621.4521  -377.6897   742.6540 C5            1 RES     
   25665 C5        -622.0738  -379.0310   742.2246 C5            1 RES     
   25666 C5        -623.6077  -379.0345   742.0807 C5            1 RES     
   25667 C5        -624.1656  -378.0826   741.0006 C5            1 RES     
   25668 C5        -623.6452  -378.3846   739.5914 C5            1 RES     
   25669 C5        -621.2362  -374.7631   743.7861 C5            1 RES     
   25670 C5        -620.3613  -374.5416   742.5251 C5            1 RES     
   25671 C5        -620.8551  -373.3760   741.6385 C5            1 RES     
   25672 C5        -620.8859  -372.0101   742.3504 C5            1 RES     
   25673 C5        -621.3711  -370.8598   741.4453 C5            1 RES     
   25674 C5        -620.4004  -370.5356   740.2931 C5            1 RES     
   25675 C5        -620.8858  -369.3885   739.3886 C5            1 RES     
   25676 C5        -620.9978  -368.0430   740.1070 C5            1 RES     
   25677 H6        -611.2380  -375.3868   752.9060 H6            1 RES     
   25678 H6        -610.0458  -376.6902   753.2146 H6            1 RES     
   25679 H6        -611.7006  -376.8163   753.9208 H6            1 RES     
   25680 H6        -610.9824  -376.8903   750.9093 H6            1 RES     
   25681 H6        -611.3716  -378.3144   751.9391 H6            1 RES     
   25682 H6        -613.3122  -377.7027   750.5906 H6            1 RES     
   25683 H6        -613.6575  -377.4814   752.3429 H6            1 RES     
   25684 H6        -612.9368  -375.1988   750.3641 H6            1 RES     
   25685 H6        -613.3446  -375.0213   752.1177 H6            1 RES     
   25686 H6        -615.2067  -376.1228   749.9119 H6            1 RES     
   25687 H6        -615.5637  -376.0779   751.6922 H6            1 RES     
   25688 H6        -615.3916  -373.6939   751.7906 H6            1 RES     
   25689 H6        -615.0293  -373.5330   750.0380 H6            1 RES     
   25690 H6        -617.5831  -374.8063   751.2380 H6            1 RES     
   25691 H6        -617.4391  -373.0888   750.8029 H6            1 RES     
   25692 H6        -616.5825  -374.4031   748.4434 H6            1 RES     
   25693 H6        -618.0300  -373.4035   748.6763 H6            1 RES     
   25694 H6        -617.8243  -376.3598   749.1376 H6            1 RES     
   25695 H6        -619.5325  -375.1745   750.5420 H6            1 RES     
   25696 H6        -620.4835  -374.8060   749.0999 H6            1 RES     
   25697 H6        -620.7975  -377.3253   748.7786 H6            1 RES     
   25698 H6        -619.5219  -377.6070   750.0205 H6            1 RES     
   25699 H6        -622.2534  -376.3565   750.6630 H6            1 RES     
   25700 H6        -620.8494  -376.5231   751.7845 H6            1 RES     
   25701 H6        -622.3083  -378.8830   750.4505 H6            1 RES     
   25702 H6        -620.7826  -378.9879   751.4011 H6            1 RES     
   25703 H6        -621.8548  -378.0710   753.4193 H6            1 RES     
   25704 H6        -622.6074  -379.5983   752.8461 H6            1 RES     
   25705 H6        -624.4898  -378.3261   751.8257 H6            1 RES     
   25706 H6        -623.7672  -376.7714   752.4218 H6            1 RES     
   25707 H6        -624.3270  -378.0132   753.5954 H6            1 RES     
   25708 H6        -617.5722  -375.4664   746.7314 H6            1 RES     
   25709 H6        -619.2119  -374.7809   746.9463 H6            1 RES     
   25710 H6        -618.9101  -375.3306   744.8212 H6            1 RES     
   25711 H6        -618.9896  -376.8566   744.0884 H6            1 RES     
   25712 H6        -621.4237  -375.8045   745.6326 H6            1 RES     
   25713 H6        -621.4810  -378.1530   744.7945 H6            1 RES     
   25714 H6        -622.8206  -377.1132   744.2142 H6            1 RES     
   25715 H6        -621.8157  -376.9092   741.9635 H6            1 RES     
   25716 H6        -620.3651  -377.7783   742.5114 H6            1 RES     
   25717 H6        -621.6340  -379.3260   741.2488 H6            1 RES     
   25718 H6        -621.7794  -379.8128   742.9535 H6            1 RES     
   25719 H6        -624.0716  -378.7848   743.0573 H6            1 RES     
   25720 H6        -623.9202  -380.0689   741.8168 H6            1 RES     
   25721 H6        -623.9429  -377.0261   741.2549 H6            1 RES     
   25722 H6        -625.2711  -378.1958   740.9864 H6            1 RES     
   25723 H6        -623.8759  -379.4335   739.3075 H6            1 RES     
   25724 H6        -624.1349  -377.7057   738.8617 H6            1 RES     
   25725 H6        -622.5510  -378.2163   739.5216 H6            1 RES     
   25726 H6        -621.0487  -373.8851   744.4399 H6            1 RES     
   25727 H6        -622.3160  -374.7513   743.5208 H6            1 RES     
   25728 H6        -620.3407  -375.4267   741.8734 H6            1 RES     
   25729 H6        -619.3119  -374.3482   742.8246 H6            1 RES     
   25730 H6        -620.1690  -373.3256   740.7680 H6            1 RES     
   25731 H6        -621.8747  -373.6128   741.2621 H6            1 RES     
   25732 H6        -619.8795  -371.7650   742.7534 H6            1 RES     
   25733 H6        -621.5990  -372.0712   743.1989 H6            1 RES     
   25734 H6        -622.3765  -371.1060   741.0381 H6            1 RES     
   25735 H6        -621.4681  -369.9624   742.0908 H6            1 RES     
   25736 H6        -620.2886  -371.4265   739.6427 H6            1 RES     
   25737 H6        -619.4018  -370.2776   740.7085 H6            1 RES     
   25738 H6        -620.1514  -369.2707   738.5621 H6            1 RES     
   25739 H6        -621.8688  -369.6512   738.9411 H6            1 RES     
   25740 H6        -621.7691  -368.0740   740.9027 H6            1 RES     
   25741 H6        -621.2972  -367.2614   739.3769 H6            1 RES     
   25742 H6        -620.0195  -367.7586   740.5487 H6            1 RES     
   25743 C0        -612.9589  -378.5578   757.6518 C0            1 RES     
   25744 C0        -612.8924  -379.7123   758.6522 C0            1 RES     
   25745 C0        -613.8432  -380.6432   758.3983 C0            1 RES     
   25746 S1        -613.7743  -381.9606   759.4285 S1            1 RES     
   25747 C0        -612.4379  -381.3267   760.2737 C0            1 RES     
   25748 C0        -612.0467  -380.1122   759.6849 C0            1 RES     
   25749 C0        -614.5301  -380.3043   757.2000 C0            1 RES     
   25750 C0        -614.0138  -379.1906   756.7312 C0            1 RES     
   25751 C0        -614.4669  -378.9201   755.3794 C0            1 RES     
   25752 C0        -615.3487  -379.9026   754.9552 C0            1 RES     
   25753 S1        -615.6916  -381.1869   756.1755 S1            1 RES     
   25754 H2        -611.1553  -379.5986   759.9761 H2            1 RES     
   25755 H2        -614.0717  -378.1605   754.7272 H2            1 RES     
   25756 N3        -610.3365  -381.6786   763.3801 N3            1 RES     
   25757 C0        -610.9738  -381.1521   762.2957 C0            1 RES     
   25758 C0        -611.7517  -381.9531   761.4355 C0            1 RES     
   25759 C0        -611.8503  -383.3176   761.7544 C0            1 RES     
   25760 N3        -612.5552  -384.2282   761.0312 N3            1 RES     
   25761 S1        -612.2763  -385.6339   761.8564 S1            1 RES     
   25762 N3        -611.3005  -385.1735   763.1068 N3            1 RES     
   25763 C0        -611.1668  -383.8406   762.8846 C0            1 RES     
   25764 C0        -610.4112  -383.0013   763.6927 C0            1 RES     
   25765 H4        -610.8988  -380.0931   762.1228 H4            1 RES     
   25766 C5        -604.9255  -380.9924   762.8445 C5            1 RES     
   25767 C5        -605.7762  -381.1834   761.5879 C5            1 RES     
   25768 C5        -607.1682  -380.5331   761.6778 C5            1 RES     
   25769 C5        -607.1384  -379.0022   761.8556 C5            1 RES     
   25770 C5        -608.5689  -378.4365   761.8814 C5            1 RES     
   25771 C5        -608.6137  -376.9517   762.2696 C5            1 RES     
   25772 C5        -610.0596  -376.4108   762.3751 C5            1 RES     
   25773 C5        -610.7333  -376.0494   761.0147 C5            1 RES     
   25774 C5        -612.0208  -376.8454   760.6381 C5            1 RES     
   25775 C5        -613.1551  -376.6683   761.6894 C5            1 RES     
   25776 C5        -614.1527  -377.8416   761.6831 C5            1 RES     
   25777 C5        -614.9292  -377.9306   763.0144 C5            1 RES     
   25778 C5        -615.7041  -379.2570   763.1138 C5            1 RES     
   25779 C5        -616.2501  -379.5394   764.5250 C5            1 RES     
   25780 C5        -617.3156  -378.5494   764.9826 C5            1 RES     
   25781 C5        -612.4197  -376.4357   759.1830 C5            1 RES     
   25782 C0        -613.4544  -377.1627   758.2401 C0            1 RES     
   25783 C5        -613.7642  -376.1121   757.0873 C5            1 RES     
   25784 C5        -615.1341  -375.3682   757.2308 C5            1 RES     
   25785 C5        -616.3411  -376.1511   756.6165 C5            1 RES     
   25786 C5        -616.4180  -376.1539   755.0716 C5            1 RES     
   25787 C5        -617.5034  -377.0793   754.4922 C5            1 RES     
   25788 C5        -618.9555  -376.6090   754.7008 C5            1 RES     
   25789 C5        -619.3115  -375.2661   754.0271 C5            1 RES     
   25790 C5        -619.1238  -375.2761   752.5064 C5            1 RES     
   25791 C5        -615.0865  -373.8711   756.7773 C5            1 RES     
   25792 C5        -614.3737  -373.5457   755.4392 C5            1 RES     
   25793 C5        -614.5717  -372.0821   754.9840 C5            1 RES     
   25794 C5        -614.0474  -371.0334   755.9833 C5            1 RES     
   25795 C5        -614.2451  -369.5808   755.5052 C5            1 RES     
   25796 C5        -613.3935  -369.2202   754.2724 C5            1 RES     
   25797 C5        -613.5924  -367.7707   753.7941 C5            1 RES     
   25798 C5        -613.1495  -366.7197   754.8131 C5            1 RES     
   25799 H6        -604.6882  -379.9214   763.0058 H6            1 RES     
   25800 H6        -603.9654  -381.5381   762.7248 H6            1 RES     
   25801 H6        -605.4518  -381.3947   763.7361 H6            1 RES     
   25802 H6        -605.2287  -380.7831   760.7084 H6            1 RES     
   25803 H6        -605.9200  -382.2765   761.4376 H6            1 RES     
   25804 H6        -607.7163  -380.7772   760.7421 H6            1 RES     
   25805 H6        -607.7193  -380.9905   762.5290 H6            1 RES     
   25806 H6        -606.5669  -378.5280   761.0281 H6            1 RES     
   25807 H6        -606.6425  -378.7643   762.8201 H6            1 RES     
   25808 H6        -609.0544  -378.6019   760.8959 H6            1 RES     
   25809 H6        -609.1229  -378.9814   762.6707 H6            1 RES     
   25810 H6        -608.1573  -376.8798   763.2818 H6            1 RES     
   25811 H6        -608.0117  -376.3218   761.5800 H6            1 RES     
   25812 H6        -610.6483  -377.1185   762.9930 H6            1 RES     
   25813 H6        -610.0050  -375.4620   762.9501 H6            1 RES     
   25814 H6        -609.9729  -376.2136   760.2184 H6            1 RES     
   25815 H6        -610.9588  -374.9611   760.9982 H6            1 RES     
   25816 H6        -611.6834  -377.8558   760.6978 H6            1 RES     
   25817 H6        -612.6866  -376.7032   762.6878 H6            1 RES     
   25818 H6        -613.6536  -375.6769   761.6240 H6            1 RES     
   25819 H6        -614.8277  -377.7972   760.8024 H6            1 RES     
   25820 H6        -613.5572  -378.7767   761.6240 H6            1 RES     
   25821 H6        -615.6000  -377.0537   763.1391 H6            1 RES     
   25822 H6        -614.1884  -377.9290   763.8448 H6            1 RES     
   25823 H6        -616.5196  -379.2852   762.3604 H6            1 RES     
   25824 H6        -614.9980  -380.0883   762.8914 H6            1 RES     
   25825 H6        -615.4108  -379.5394   765.2560 H6            1 RES     
   25826 H6        -616.7002  -380.5559   764.5267 H6            1 RES     
   25827 H6        -618.1769  -378.5652   764.2826 H6            1 RES     
   25828 H6        -616.9033  -377.5219   765.0469 H6            1 RES     
   25829 H6        -617.6732  -378.8429   765.9930 H6            1 RES     
   25830 H6        -611.4891  -376.4061   758.5736 H6            1 RES     
   25831 H6        -612.7611  -375.3814   759.3063 H6            1 RES     
   25832 H6        -612.9599  -375.3468   757.0999 H6            1 RES     
   25833 H6        -613.6433  -376.5046   756.0682 H6            1 RES     
   25834 H6        -615.3482  -375.3105   758.3229 H6            1 RES     
   25835 H6        -616.2987  -377.1956   756.9945 H6            1 RES     
   25836 H6        -617.2845  -375.6988   756.9903 H6            1 RES     
   25837 H6        -616.5950  -375.1363   754.6826 H6            1 RES     
   25838 H6        -615.4534  -376.4988   754.6711 H6            1 RES     
   25839 H6        -617.3277  -377.1870   753.4012 H6            1 RES     
   25840 H6        -617.3860  -378.0899   754.9328 H6            1 RES     
   25841 H6        -619.1684  -376.5361   755.7874 H6            1 RES     
   25842 H6        -619.6274  -377.3893   754.2800 H6            1 RES     
   25843 H6        -618.7175  -374.4376   754.4642 H6            1 RES     
   25844 H6        -620.3823  -375.0545   754.2363 H6            1 RES     
   25845 H6        -619.7270  -376.0868   752.0449 H6            1 RES     
   25846 H6        -619.4577  -374.3043   752.0851 H6            1 RES     
   25847 H6        -618.0570  -375.4096   752.2332 H6            1 RES     
   25848 H6        -614.5285  -373.3127   757.5585 H6            1 RES     
   25849 H6        -616.1271  -373.4791   756.7723 H6            1 RES     
   25850 H6        -614.7396  -374.1697   754.6114 H6            1 RES     
   25851 H6        -613.2886  -373.7517   755.5313 H6            1 RES     
   25852 H6        -614.0371  -371.9742   754.0179 H6            1 RES     
   25853 H6        -615.6542  -371.9017   754.8024 H6            1 RES     
   25854 H6        -612.9707  -371.2103   756.1951 H6            1 RES     
   25855 H6        -614.6138  -371.1370   756.9323 H6            1 RES     
   25856 H6        -615.3217  -369.4039   755.2890 H6            1 RES     
   25857 H6        -613.9472  -368.9222   756.3471 H6            1 RES     
   25858 H6        -613.6761  -369.8757   753.4239 H6            1 RES     
   25859 H6        -612.3181  -369.3869   754.5006 H6            1 RES     
   25860 H6        -612.9841  -367.6277   752.8743 H6            1 RES     
   25861 H6        -614.6593  -367.6034   753.5309 H6            1 RES     
   25862 H6        -613.7678  -366.7640   755.7322 H6            1 RES     
   25863 H6        -613.2718  -365.7075   754.3725 H6            1 RES     
   25864 H6        -612.0806  -366.8642   755.0769 H6            1 RES     
   25865 C0        -606.6805  -383.7244   767.1419 C0            1 RES     
   25866 C0        -606.8614  -385.0909   767.8036 C0            1 RES     
   25867 C0        -608.0929  -385.6000   767.5602 C0            1 RES     
   25868 S1        -608.3214  -387.1249   768.2115 S1            1 RES     
   25869 C0        -606.7459  -387.1687   768.8579 C0            1 RES     
   25870 C0        -606.0604  -385.9964   768.4965 C0            1 RES     
   25871 C0        -608.7892  -384.7465   766.6606 C0            1 RES     
   25872 C0        -608.0037  -383.7367   766.3609 C0            1 RES     
   25873 C0        -608.5261  -382.9664   765.2475 C0            1 RES     
   25874 C0        -609.7343  -383.4923   764.8155 C0            1 RES     
   25875 S1        -610.3093  -384.9268   765.7470 S1            1 RES     
   25876 H2        -605.0177  -385.8629   768.6911 H2            1 RES     
   25877 H2        -607.9967  -382.1925   764.7190 H2            1 RES     
   25878 N3        -604.4669  -388.9903   771.2407 N3            1 RES     
   25879 C0        -605.0387  -388.0126   770.4815 C0            1 RES     
   25880 C0        -606.1508  -388.2741   769.6559 C0            1 RES     
   25881 C0        -606.6509  -389.5868   769.6611 C0            1 RES     
   25882 N3        -607.7121  -390.0092   768.9232 N3            1 RES     
   25883 S1        -607.8029  -391.6139   769.3125 S1            1 RES     
   25884 N3        -606.5644  -391.8334   770.3830 N3            1 RES     
   25885 C0        -606.0285  -390.5878   770.4541 C0            1 RES     
   25886 C0        -604.9317  -390.2696   771.2442 C0            1 RES     
   25887 H4        -604.6414  -387.0151   770.5483 H4            1 RES     
   25888 C5        -599.2667  -389.7279   769.6754 C5            1 RES     
   25889 C5        -600.2999  -389.2956   768.6338 C5            1 RES     
   25890 C5        -601.3699  -388.3361   769.1843 C5            1 RES     
   25891 C5        -600.8090  -386.9973   769.7033 C5            1 RES     
   25892 C5        -601.9521  -386.0856   770.1821 C5            1 RES     
   25893 C5        -601.4467  -384.8296   770.9061 C5            1 RES     
   25894 C5        -602.6011  -383.9595   771.4579 C5            1 RES     
   25895 C5        -603.3004  -383.0417   770.4074 C5            1 RES     
   25896 C5        -604.8184  -383.2969   770.1553 C5            1 RES     
   25897 C5        -605.6704  -383.1237   771.4465 C5            1 RES     
   25898 C5        -606.9912  -383.9138   771.3912 C5            1 RES     
   25899 C5        -607.5585  -384.1663   772.8046 C5            1 RES     
   25900 C5        -608.7076  -385.1898   772.7635 C5            1 RES     
   25901 C5        -609.1128  -385.7073   774.1554 C5            1 RES     
   25902 C5        -609.7140  -384.6368   775.0594 C5            1 RES     
   25903 C5        -605.2586  -382.3845   768.9644 C5            1 RES     
   25904 C0        -606.5972  -382.4821   768.1358 C0            1 RES     
   25905 C5        -606.6992  -381.0974   767.3606 C5            1 RES     
   25906 C5        -607.7100  -380.0744   767.9786 C5            1 RES     
   25907 C5        -609.1820  -380.2707   767.4866 C5            1 RES     
   25908 C5        -609.4712  -379.7996   766.0419 C5            1 RES     
   25909 C5        -610.8721  -380.1706   765.5222 C5            1 RES     
   25910 C5        -612.0414  -379.3935   766.1565 C5            1 RES     
   25911 C5        -612.0221  -377.8689   765.9132 C5            1 RES     
   25912 C5        -612.0636  -377.4858   764.4301 C5            1 RES     
   25913 C5        -607.2324  -378.5867   767.8886 C5            1 RES     
   25914 C5        -606.6471  -378.0982   766.5383 C5            1 RES     
   25915 C5        -606.4098  -376.5717   766.4942 C5            1 RES     
   25916 C5        -605.4325  -376.0532   767.5662 C5            1 RES     
   25917 C5        -605.2019  -374.5300   767.4977 C5            1 RES     
   25918 C5        -604.4607  -374.0792   766.2240 C5            1 RES     
   25919 C5        -604.2322  -372.5585   766.1550 C5            1 RES     
   25920 C5        -603.3273  -372.0207   767.2646 C5            1 RES     
   25921 H6        -598.6672  -388.8630   770.0246 H6            1 RES     
   25922 H6        -598.5689  -390.4616   769.2184 H6            1 RES     
   25923 H6        -599.7662  -390.2085   770.5433 H6            1 RES     
   25924 H6        -599.7795  -388.8263   767.7720 H6            1 RES     
   25925 H6        -600.8179  -390.2101   768.2687 H6            1 RES     
   25926 H6        -602.0934  -388.1312   768.3656 H6            1 RES     
   25927 H6        -601.9165  -388.8483   770.0068 H6            1 RES     
   25928 H6        -600.2345  -386.4825   768.9025 H6            1 RES     
   25929 H6        -600.1323  -387.2016   770.5595 H6            1 RES     
   25930 H6        -602.5980  -385.8118   769.3206 H6            1 RES     
   25931 H6        -602.5391  -386.6589   770.9262 H6            1 RES     
   25932 H6        -600.8551  -385.1884   771.7776 H6            1 RES     
   25933 H6        -600.7727  -384.2214   770.2654 H6            1 RES     
   25934 H6        -603.2985  -384.6216   772.0097 H6            1 RES     
   25935 H6        -602.1546  -383.2760   772.2112 H6            1 RES     
   25936 H6        -602.7572  -383.1726   769.4445 H6            1 RES     
   25937 H6        -603.1518  -381.9788   770.6967 H6            1 RES     
   25938 H6        -604.8306  -384.3328   769.8997 H6            1 RES     
   25939 H6        -605.1049  -383.5796   772.2772 H6            1 RES     
   25940 H6        -605.8155  -382.0584   771.7285 H6            1 RES     
   25941 H6        -607.7296  -383.4256   770.7206 H6            1 RES     
   25942 H6        -606.7544  -384.9186   770.9828 H6            1 RES     
   25943 H6        -607.8757  -383.2128   773.2785 H6            1 RES     
   25944 H6        -606.7505  -384.6162   773.4236 H6            1 RES     
   25945 H6        -609.5833  -384.7658   772.2279 H6            1 RES     
   25946 H6        -608.3560  -386.0830   772.1999 H6            1 RES     
   25947 H6        -608.2274  -386.1572   774.6577 H6            1 RES     
   25948 H6        -609.8698  -386.5103   774.0209 H6            1 RES     
   25949 H6        -610.6209  -384.2042   774.5877 H6            1 RES     
   25950 H6        -608.9794  -383.8325   775.2673 H6            1 RES     
   25951 H6        -610.0033  -385.1002   776.0272 H6            1 RES     
   25952 H6        -604.4660  -382.4408   768.1853 H6            1 RES     
   25953 H6        -605.2098  -381.3610   769.4042 H6            1 RES     
   25954 H6        -605.6931  -380.6279   767.3700 H6            1 RES     
   25955 H6        -606.8595  -381.1920   766.2777 H6            1 RES     
   25956 H6        -607.7375  -380.2810   769.0733 H6            1 RES     
   25957 H6        -609.4360  -381.3479   767.5907 H6            1 RES     
   25958 H6        -609.8595  -379.7014   768.1583 H6            1 RES     
   25959 H6        -609.3531  -378.7059   765.9516 H6            1 RES     
   25960 H6        -608.7421  -380.2688   765.3653 H6            1 RES     
   25961 H6        -610.8969  -379.9991   764.4256 H6            1 RES     
   25962 H6        -611.0362  -381.2561   765.6765 H6            1 RES     
   25963 H6        -612.0634  -379.5850   767.2493 H6            1 RES     
   25964 H6        -612.9861  -379.7945   765.7276 H6            1 RES     
   25965 H6        -611.1318  -377.4066   766.3863 H6            1 RES     
   25966 H6        -612.9215  -377.4356   766.4016 H6            1 RES     
   25967 H6        -612.9601  -377.9220   763.9401 H6            1 RES     
   25968 H6        -612.1116  -376.3805   764.3337 H6            1 RES     
   25969 H6        -611.1511  -377.8278   763.9002 H6            1 RES     
   25970 H6        -606.4170  -378.4619   768.6322 H6            1 RES     
   25971 H6        -608.0736  -377.9344   768.2098 H6            1 RES     
   25972 H6        -607.3116  -378.3234   765.6920 H6            1 RES     
   25973 H6        -605.6902  -378.6186   766.3328 H6            1 RES     
   25974 H6        -606.0107  -376.3407   765.4851 H6            1 RES     
   25975 H6        -607.3852  -376.0492   766.6084 H6            1 RES     
   25976 H6        -604.4571  -376.5795   767.4827 H6            1 RES     
   25977 H6        -605.8622  -376.2663   768.5673 H6            1 RES     
   25978 H6        -606.1778  -374.0023   767.5771 H6            1 RES     
   25979 H6        -604.5873  -374.2583   768.3809 H6            1 RES     
   25980 H6        -605.0607  -374.3505   765.3321 H6            1 RES     
   25981 H6        -603.4808  -374.6007   766.1587 H6            1 RES     
   25982 H6        -603.7462  -372.3297   765.1813 H6            1 RES     
   25983 H6        -605.2088  -372.0285   766.1854 H6            1 RES     
   25984 H6        -603.7899  -372.1563   768.2628 H6            1 RES     
   25985 H6        -603.1672  -370.9323   767.1117 H6            1 RES     
   25986 H6        -602.3412  -372.5304   767.2395 H6            1 RES     
   25987 C0        -601.2081  -392.9888   773.4975 C0            1 RES     
   25988 C0        -601.7375  -394.3805   773.8450 C0            1 RES     
   25989 C0        -603.0895  -394.4283   773.7733 C0            1 RES     
   25990 S1        -603.7174  -395.9483   774.0847 S1            1 RES     
   25991 C0        -602.1716  -396.6206   774.3310 C0            1 RES     
   25992 C0        -601.1937  -395.6361   774.1085 C0            1 RES     
   25993 C0        -603.5818  -393.1892   773.2786 C0            1 RES     
   25994 C0        -602.5560  -392.3994   773.0540 C0            1 RES     
   25995 C0        -602.9437  -391.2228   772.2984 C0            1 RES     
   25996 C0        -604.3058  -391.2372   772.0391 C0            1 RES     
   25997 S1        -605.1877  -392.6592   772.7148 S1            1 RES     
   25998 H2        -600.1494  -395.8643   774.0889 H2            1 RES     
   25999 H2        -602.2671  -390.5096   771.8600 H2            1 RES     
   26000 N3        -600.3162  -399.6235   775.6460 N3            1 RES     
   26001 C0        -600.6315  -398.3469   775.2850 C0            1 RES     
   26002 C0        -601.8714  -398.0317   774.6936 C0            1 RES     
   26003 C0        -602.7729  -399.0923   774.5046 C0            1 RES     
   26004 N3        -604.0065  -398.9640   773.9470 N3            1 RES     
   26005 S1        -604.5692  -400.5190   773.9610 S1            1 RES     
   26006 N3        -603.3367  -401.3812   774.6433 N3            1 RES     
   26007 C0        -602.4134  -400.4142   774.8806 C0            1 RES     
   26008 C0        -601.1738  -400.6630   775.4553 C0            1 RES     
   26009 H4        -599.9205  -397.5666   775.4918 H4            1 RES     
   26010 C5        -595.9295  -401.3019   772.8218 C5            1 RES     
   26011 C5        -596.8958  -400.3114   772.1702 C5            1 RES     
   26012 C5        -597.4983  -399.2947   773.1561 C5            1 RES     
   26013 C5        -596.4581  -398.3807   773.8333 C5            1 RES     
   26014 C5        -597.1546  -397.3661   774.7566 C5            1 RES     
   26015 C5        -596.1648  -396.5722   775.6210 C5            1 RES     
   26016 C5        -596.8755  -395.6139   776.6062 C5            1 RES     
   26017 C5        -597.3705  -394.2710   775.9843 C5            1 RES     
   26018 C5        -598.9066  -394.0036   776.0282 C5            1 RES     
   26019 C5        -599.4628  -393.9836   777.4820 C5            1 RES     
   26020 C5        -600.9650  -394.3181   777.5427 C5            1 RES     
   26021 C5        -601.3797  -394.8029   778.9484 C5            1 RES     
   26022 C5        -602.7972  -395.4031   778.9293 C5            1 RES     
   26023 C5        -603.1518  -396.1695   780.2163 C5            1 RES     
   26024 C5        -603.2305  -395.2866   781.4568 C5            1 RES     
   26025 C5        -599.1814  -392.6975   775.2140 C5            1 RES     
   26026 C0        -600.5787  -392.1678   774.7090 C0            1 RES     
   26027 C5        -600.3229  -390.6467   774.3221 C5            1 RES     
   26028 C5        -600.8396  -389.6083   775.3734 C5            1 RES     
   26029 C5        -602.3469  -389.2299   775.1937 C5            1 RES     
   26030 C5        -602.6629  -388.2952   774.0024 C5            1 RES     
   26031 C5        -604.1656  -388.0883   773.7397 C5            1 RES     
   26032 C5        -604.9096  -387.2348   774.7846 C5            1 RES     
   26033 C5        -604.4197  -385.7756   774.9061 C5            1 RES     
   26034 C5        -604.5392  -384.9799   773.6022 C5            1 RES     
   26035 C5        -599.9130  -388.3566   775.5280 C5            1 RES     
   26036 C5        -599.3941  -387.6796   774.2330 C5            1 RES     
   26037 C5        -598.6723  -386.3383   774.4944 C5            1 RES     
   26038 C5        -597.4383  -386.4529   775.4094 C5            1 RES     
   26039 C5        -596.7272  -385.1056   775.6484 C5            1 RES     
   26040 C5        -596.0647  -384.5293   774.3819 C5            1 RES     
   26041 C5        -595.3565  -383.1835   774.6203 C5            1 RES     
   26042 C5        -594.1784  -383.2711   775.5916 C5            1 RES     
   26043 H6        -595.0342  -400.7821   773.2190 H6            1 RES     
   26044 H6        -595.5862  -402.0349   772.0609 H6            1 RES     
   26045 H6        -596.4332  -401.8546   773.6430 H6            1 RES     
   26046 H6        -596.3755  -399.7766   771.3475 H6            1 RES     
   26047 H6        -597.7337  -400.8947   771.7280 H6            1 RES     
   26048 H6        -598.2201  -398.6644   772.5925 H6            1 RES     
   26049 H6        -598.0629  -399.8498   773.9375 H6            1 RES     
   26050 H6        -595.8635  -397.8374   773.0667 H6            1 RES     
   26051 H6        -595.7745  -399.0082   774.4430 H6            1 RES     
   26052 H6        -597.7871  -396.6822   774.1512 H6            1 RES     
   26053 H6        -597.7881  -397.9427   775.4588 H6            1 RES     
   26054 H6        -595.6099  -397.3215   776.2282 H6            1 RES     
   26055 H6        -595.4240  -396.0183   775.0051 H6            1 RES     
   26056 H6        -597.6684  -396.1843   777.1306 H6            1 RES     
   26057 H6        -596.1266  -395.3351   777.3777 H6            1 RES     
   26058 H6        -597.0423  -394.2615   774.9206 H6            1 RES     
   26059 H6        -596.8386  -393.4259   776.4727 H6            1 RES     
   26060 H6        -599.2976  -394.8721   775.5473 H6            1 RES     
   26061 H6        -598.9702  -394.8023   778.0339 H6            1 RES     
   26062 H6        -599.2051  -393.0517   778.0302 H6            1 RES     
   26063 H6        -601.5858  -393.4680   777.1887 H6            1 RES     
   26064 H6        -601.1348  -395.1834   776.8683 H6            1 RES     
   26065 H6        -601.2928  -393.9809   779.6908 H6            1 RES     
   26066 H6        -600.6886  -395.6225   779.2468 H6            1 RES     
   26067 H6        -603.5484  -394.6127   778.7191 H6            1 RES     
   26068 H6        -602.8447  -396.1535   778.1084 H6            1 RES     
   26069 H6        -602.4047  -396.9767   780.3869 H6            1 RES     
   26070 H6        -604.1432  -396.6512   780.0721 H6            1 RES     
   26071 H6        -603.9991  -394.4983   781.3160 H6            1 RES     
   26072 H6        -602.2491  -394.8190   781.6759 H6            1 RES     
   26073 H6        -603.5185  -395.9120   782.3292 H6            1 RES     
   26074 H6        -598.5700  -392.7438   774.2854 H6            1 RES     
   26075 H6        -598.7345  -391.9045   775.8581 H6            1 RES     
   26076 H6        -599.2272  -390.5032   774.2141 H6            1 RES     
   26077 H6        -600.6557  -390.3712   773.3118 H6            1 RES     
   26078 H6        -600.7804  -390.1098   776.3667 H6            1 RES     
   26079 H6        -602.9268  -390.1734   775.0978 H6            1 RES     
   26080 H6        -602.6958  -388.7156   776.1146 H6            1 RES     
   26081 H6        -602.2024  -387.3024   774.1457 H6            1 RES     
   26082 H6        -602.2333  -388.7311   773.0885 H6            1 RES     
   26083 H6        -604.2857  -387.6037   772.7481 H6            1 RES     
   26084 H6        -604.6574  -389.0794   773.6691 H6            1 RES     
   26085 H6        -604.8405  -387.7235   775.7785 H6            1 RES     
   26086 H6        -605.9841  -387.2102   774.4980 H6            1 RES     
   26087 H6        -603.3694  -385.7420   775.2610 H6            1 RES     
   26088 H6        -605.0465  -385.2697   775.6719 H6            1 RES     
   26089 H6        -605.5889  -384.9831   773.2387 H6            1 RES     
   26090 H6        -604.2306  -383.9280   773.7799 H6            1 RES     
   26091 H6        -603.8758  -385.3940   772.8155 H6            1 RES     
   26092 H6        -599.0066  -388.6895   776.0769 H6            1 RES     
   26093 H6        -600.4361  -387.6179   776.1737 H6            1 RES     
   26094 H6        -600.2074  -387.4509   773.5296 H6            1 RES     
   26095 H6        -598.7031  -388.3641   773.7016 H6            1 RES     
   26096 H6        -598.3649  -385.9441   773.5039 H6            1 RES     
   26097 H6        -599.3928  -385.6199   774.9442 H6            1 RES     
   26098 H6        -596.7148  -387.1837   774.9877 H6            1 RES     
   26099 H6        -597.7695  -386.8197   776.4033 H6            1 RES     
   26100 H6        -597.4513  -384.3721   776.0666 H6            1 RES     
   26101 H6        -595.9399  -385.2885   776.4087 H6            1 RES     
   26102 H6        -596.8396  -384.3475   773.6100 H6            1 RES     
   26103 H6        -595.3329  -385.2623   773.9776 H6            1 RES     
   26104 H6        -594.9638  -382.8262   773.6433 H6            1 RES     
   26105 H6        -596.0874  -382.4334   774.9928 H6            1 RES     
   26106 H6        -594.5150  -383.5571   776.6084 H6            1 RES     
   26107 H6        -593.6893  -382.2766   775.6652 H6            1 RES     
   26108 H6        -593.4312  -384.0070   775.2268 H6            1 RES     
   26109 C0        -598.2869  -404.8547   776.1128 C0            1 RES     
   26110 C0        -599.1940  -406.0795   776.2357 C0            1 RES     
   26111 C0        -600.4810  -405.7220   776.4613 C0            1 RES     
   26112 S1        -601.5276  -407.0258   776.5422 S1            1 RES     
   26113 C0        -600.2743  -408.1469   776.2700 C0            1 RES     
   26114 C0        -599.0665  -407.4570   776.0692 C0            1 RES     
   26115 C0        -600.5984  -404.3063   776.3937 C0            1 RES     
   26116 C0        -599.4108  -403.8072   776.1346 C0            1 RES     
   26117 C0        -599.4879  -402.4017   775.7820 C0            1 RES     
   26118 C0        -600.7997  -401.9560   775.8402 C0            1 RES     
   26119 S1        -601.9996  -403.2053   776.3458 S1            1 RES     
   26120 H2        -598.1708  -407.9534   775.7621 H2            1 RES     
   26121 H2        -598.6815  -401.8119   775.3815 H2            1 RES     
   26122 N3        -599.3557  -411.7979   776.3946 N3            1 RES     
   26123 C0        -599.2768  -410.4369   776.4223 C0            1 RES     
   26124 C0        -600.4117  -409.6271   776.2158 C0            1 RES     
   26125 C0        -601.6312  -410.2876   775.9924 C0            1 RES     
   26126 N3        -602.8175  -409.6603   775.7728 N3            1 RES     
   26127 S1        -603.8565  -410.9274   775.5496 S1            1 RES     
   26128 N3        -602.8973  -412.2616   775.7160 N3            1 RES     
   26129 C0        -601.6818  -411.7069   775.9584 C0            1 RES     
   26130 C0        -600.5275  -412.4510   776.1646 C0            1 RES     
   26131 H4        -598.3255  -409.9842   776.6399 H4            1 RES     
   26132 C5        -596.2167  -413.7389   772.3430 C5            1 RES     
   26133 C5        -596.8807  -412.3713   772.1757 C5            1 RES     
   26134 C5        -596.9671  -411.5612   773.4814 C5            1 RES     
   26135 C5        -595.5984  -411.2165   774.1011 C5            1 RES     
   26136 C5        -595.7820  -410.3636   775.3683 C5            1 RES     
   26137 C5        -594.4740  -410.1693   776.1483 C5            1 RES     
   26138 C5        -594.6807  -409.3818   777.4642 C5            1 RES     
   26139 C5        -594.7839  -407.8334   777.3011 C5            1 RES     
   26140 C5        -596.1220  -407.1699   777.7511 C5            1 RES     
   26141 C5        -596.4304  -407.4206   779.2561 C5            1 RES     
   26142 C5        -597.9341  -407.3217   779.5739 C5            1 RES     
   26143 C5        -598.2849  -408.0596   780.8837 C5            1 RES     
   26144 C5        -599.8090  -408.2039   781.0448 C5            1 RES     
   26145 C5        -600.2137  -409.1812   782.1630 C5            1 RES     
   26146 C5        -599.8202  -408.7152   783.5604 C5            1 RES     
   26147 C5        -596.0590  -405.6606   777.3479 C5            1 RES     
   26148 C0        -597.2574  -404.6358   777.3087 C0            1 RES     
   26149 C5        -596.5682  -403.2043   777.2404 C5            1 RES     
   26150 C5        -596.5582  -402.4176   778.5937 C5            1 RES     
   26151 C5        -597.8638  -401.5954   778.8516 C5            1 RES     
   26152 C5        -598.0154  -400.3037   778.0142 C5            1 RES     
   26153 C5        -599.3854  -399.6151   778.1527 C5            1 RES     
   26154 C5        -599.6496  -398.9317   779.5079 C5            1 RES     
   26155 C5        -598.6913  -397.7713   779.8533 C5            1 RES     
   26156 C5        -598.7215  -396.6289   778.8326 C5            1 RES     
   26157 C5        -595.2567  -401.5795   778.8235 C5            1 RES     
   26158 C5        -594.7295  -400.7277   777.6399 C5            1 RES     
   26159 C5        -593.5744  -399.7812   778.0378 C5            1 RES     
   26160 C5        -592.3330  -400.5007   778.5985 C5            1 RES     
   26161 C5        -591.1889  -399.5393   778.9790 C5            1 RES     
   26162 C5        -590.5573  -398.8282   777.7665 C5            1 RES     
   26163 C5        -589.4166  -397.8671   778.1467 C5            1 RES     
   26164 C5        -588.2104  -398.5627   778.7796 C5            1 RES     
   26165 H6        -595.1533  -413.6319   772.6385 H6            1 RES     
   26166 H6        -596.2464  -414.2828   771.3748 H6            1 RES     
   26167 H6        -596.7549  -414.3428   773.1041 H6            1 RES     
   26168 H6        -596.3332  -411.7881   771.4051 H6            1 RES     
   26169 H6        -597.9180  -412.5394   771.8099 H6            1 RES     
   26170 H6        -597.5102  -410.6173   773.2581 H6            1 RES     
   26171 H6        -597.5684  -412.1384   774.2181 H6            1 RES     
   26172 H6        -594.9709  -410.6628   773.3690 H6            1 RES     
   26173 H6        -595.0835  -412.1607   774.3772 H6            1 RES     
   26174 H6        -596.2299  -409.3835   775.0979 H6            1 RES     
   26175 H6        -596.4659  -410.9179   776.0405 H6            1 RES     
   26176 H6        -594.1198  -411.1878   776.4227 H6            1 RES     
   26177 H6        -593.6854  -409.6911   775.5283 H6            1 RES     
   26178 H6        -595.5362  -409.8337   778.0056 H6            1 RES     
   26179 H6        -593.7814  -409.5635   778.0903 H6            1 RES     
   26180 H6        -594.6237  -407.6057   776.2232 H6            1 RES     
   26181 H6        -593.9388  -407.3535   777.8406 H6            1 RES     
   26182 H6        -596.8424  -407.7130   777.1814 H6            1 RES     
   26183 H6        -596.1652  -408.4689   779.4760 H6            1 RES     
   26184 H6        -595.8038  -406.8018   779.9343 H6            1 RES     
   26185 H6        -598.2807  -406.2666   779.5774 H6            1 RES     
   26186 H6        -598.4743  -407.8675   778.7721 H6            1 RES     
   26187 H6        -597.8268  -407.5500   781.7583 H6            1 RES     
   26188 H6        -597.8703  -409.0902   780.8188 H6            1 RES     
   26189 H6        -600.2769  -407.2088   781.1997 H6            1 RES     
   26190 H6        -600.2174  -408.6361   780.1037 H6            1 RES     
   26191 H6        -599.7608  -410.1790   781.9676 H6            1 RES     
   26192 H6        -601.3187  -409.3005   782.1375 H6            1 RES     
   26193 H6        -600.2952  -407.7374   783.7844 H6            1 RES     
   26194 H6        -598.7188  -408.6279   783.6557 H6            1 RES     
   26195 H6        -600.1741  -409.4611   784.3043 H6            1 RES     
   26196 H6        -595.6342  -405.6031   776.3210 H6            1 RES     
   26197 H6        -595.2886  -405.2500   778.0416 H6            1 RES     
   26198 H6        -595.5137  -403.3497   776.9248 H6            1 RES     
   26199 H6        -596.9289  -402.5633   776.4241 H6            1 RES     
   26200 H6        -596.5301  -403.1833   779.4028 H6            1 RES     
   26201 H6        -598.7314  -402.2665   778.6712 H6            1 RES     
   26202 H6        -597.8895  -401.2967   779.9214 H6            1 RES     
   26203 H6        -597.2362  -399.5677   778.2780 H6            1 RES     
   26204 H6        -597.8875  -400.5554   776.9513 H6            1 RES     
   26205 H6        -599.4756  -398.8482   777.3549 H6            1 RES     
   26206 H6        -600.1830  -400.3620   777.9652 H6            1 RES     
   26207 H6        -599.6080  -399.6885   780.3183 H6            1 RES     
   26208 H6        -600.6839  -398.5232   779.4846 H6            1 RES     
   26209 H6        -597.6506  -398.1398   779.9603 H6            1 RES     
   26210 H6        -599.0006  -397.3568   780.8370 H6            1 RES     
   26211 H6        -599.7527  -396.2303   778.7246 H6            1 RES     
   26212 H6        -598.0596  -395.8063   779.1770 H6            1 RES     
   26213 H6        -598.3503  -396.9637   777.8424 H6            1 RES     
   26214 H6        -594.4447  -402.2992   779.0608 H6            1 RES     
   26215 H6        -595.4090  -400.9462   779.7247 H6            1 RES     
   26216 H6        -595.5109  -400.0841   777.2111 H6            1 RES     
   26217 H6        -594.3866  -401.3921   776.8217 H6            1 RES     
   26218 H6        -593.2956  -399.2176   777.1237 H6            1 RES     
   26219 H6        -593.9450  -399.0537   778.7932 H6            1 RES     
   26220 H6        -591.9598  -401.2487   777.8660 H6            1 RES     
   26221 H6        -592.6244  -401.0337   779.5275 H6            1 RES     
   26222 H6        -591.5624  -398.7877   779.7090 H6            1 RES     
   26223 H6        -590.4087  -400.1503   779.4782 H6            1 RES     
   26224 H6        -591.3280  -398.2183   777.2533 H6            1 RES     
   26225 H6        -590.1746  -399.5857   777.0480 H6            1 RES     
   26226 H6        -589.0686  -397.3651   777.2175 H6            1 RES     
   26227 H6        -589.7972  -397.0851   778.8389 H6            1 RES     
   26228 H6        -588.4768  -399.0270   779.7504 H6            1 RES     
   26229 H6        -587.4138  -397.8129   778.9713 H6            1 RES     
   26230 H6        -587.8088  -399.3386   778.0943 H6            1 RES     
   26231 C0        -599.1335  -417.2862   775.1572 C0            1 RES     
   26232 C0        -600.3689  -418.1865   775.1917 C0            1 RES     
   26233 C0        -601.4193  -417.5639   775.7785 C0            1 RES     
   26234 S1        -602.8169  -418.4848   775.7864 S1            1 RES     
   26235 C0        -602.0580  -419.7823   774.9847 C0            1 RES     
   26236 C0        -600.7306  -419.4326   774.6838 C0            1 RES     
   26237 C0        -601.0684  -416.2172   776.0717 C0            1 RES     
   26238 C0        -599.8312  -416.0192   775.6756 C0            1 RES     
   26239 C0        -599.4861  -414.6098   775.6878 C0            1 RES     
   26240 C0        -600.5537  -413.8506   776.1424 C0            1 RES     
   26241 S1        -602.0168  -414.8030   776.5992 S1            1 RES     
   26242 H2        -600.1028  -420.0483   774.0756 H2            1 RES     
   26243 H2        -598.5943  -414.1802   775.2650 H2            1 RES     
   26244 N3        -602.3954  -423.4139   774.0429 N3            1 RES     
   26245 C0        -601.8662  -422.2003   774.3692 C0            1 RES     
   26246 C0        -602.6851  -421.0806   774.6187 C0            1 RES     
   26247 C0        -604.0732  -421.2760   774.5278 C0            1 RES     
   26248 N3        -605.0025  -420.3048   774.7339 N3            1 RES     
   26249 S1        -606.4235  -421.1054   774.4609 S1            1 RES     
   26250 N3        -605.9482  -422.6432   774.0906 N3            1 RES     
   26251 C0        -604.5963  -422.5490   774.1755 C0            1 RES     
   26252 C0        -603.7376  -423.6140   773.9368 C0            1 RES     
   26253 H4        -600.7981  -422.1177   774.4665 H4            1 RES     
   26254 C5        -600.6795  -424.8849   769.0501 C5            1 RES     
   26255 C5        -600.8685  -423.3993   769.3609 C5            1 RES     
   26256 C5        -600.4971  -423.0167   770.8046 C5            1 RES     
   26257 C5        -599.0191  -423.2679   771.1629 C5            1 RES     
   26258 C5        -598.7296  -422.8076   772.6021 C5            1 RES     
   26259 C5        -597.3356  -423.2260   773.0907 C5            1 RES     
   26260 C5        -597.0826  -422.8333   774.5658 C5            1 RES     
   26261 C5        -596.6878  -421.3413   774.7964 C5            1 RES     
   26262 C5        -597.6527  -420.4903   775.6785 C5            1 RES     
   26263 C5        -597.8126  -421.0732   777.1130 C5            1 RES     
   26264 C5        -599.1379  -420.6529   777.7754 C5            1 RES     
   26265 C5        -599.5264  -421.6120   778.9210 C5            1 RES     
   26266 C5        -600.9735  -421.3625   779.3830 C5            1 RES     
   26267 C5        -601.5186  -422.4691   780.3037 C5            1 RES     
   26268 C5        -600.8009  -422.5628   781.6456 C5            1 RES     
   26269 C5        -597.1495  -419.0107   775.6354 C5            1 RES     
   26270 C0        -597.9328  -417.7256   776.1076 C0            1 RES     
   26271 C5        -596.8244  -416.5911   776.2221 C5            1 RES     
   26272 C5        -596.3642  -416.2709   777.6836 C5            1 RES     
   26273 C5        -597.2731  -415.2278   778.4137 C5            1 RES     
   26274 C5        -597.1031  -413.7596   777.9575 C5            1 RES     
   26275 C5        -598.1332  -412.7855   778.5579 C5            1 RES     
   26276 C5        -597.9628  -412.4832   780.0589 C5            1 RES     
   26277 C5        -596.6353  -411.7933   780.4407 C5            1 RES     
   26278 C5        -596.4274  -410.4420   779.7489 C5            1 RES     
   26279 C5        -594.8397  -415.9382   777.8036 C5            1 RES     
   26280 C5        -594.2312  -414.9615   776.7642 C5            1 RES     
   26281 C5        -592.7837  -414.5378   777.1014 C5            1 RES     
   26282 C5        -591.7858  -415.7085   777.1841 C5            1 RES     
   26283 C5        -590.3462  -415.2628   777.5109 C5            1 RES     
   26284 C5        -589.6910  -414.4358   776.3877 C5            1 RES     
   26285 C5        -588.2546  -413.9894   776.7149 C5            1 RES     
   26286 C5        -587.2716  -415.1495   776.8794 C5            1 RES     
   26287 H6        -599.6106  -425.1726   769.1151 H6            1 RES     
   26288 H6        -601.0235  -425.0903   768.0140 H6            1 RES     
   26289 H6        -601.2753  -425.5082   769.7503 H6            1 RES     
   26290 H6        -600.2722  -422.7948   768.6449 H6            1 RES     
   26291 H6        -601.9432  -423.1542   769.2093 H6            1 RES     
   26292 H6        -600.7218  -421.9360   770.9362 H6            1 RES     
   26293 H6        -601.1464  -423.5907   771.5020 H6            1 RES     
   26294 H6        -598.3527  -422.7240   770.4584 H6            1 RES     
   26295 H6        -598.8135  -424.3564   771.0876 H6            1 RES     
   26296 H6        -598.8600  -421.7067   772.6761 H6            1 RES     
   26297 H6        -599.4573  -423.3186   773.2626 H6            1 RES     
   26298 H6        -597.3048  -424.3368   773.0325 H6            1 RES     
   26299 H6        -596.5282  -422.8293   772.4382 H6            1 RES     
   26300 H6        -597.9547  -423.1641   775.1651 H6            1 RES     
   26301 H6        -596.2162  -423.4354   774.9131 H6            1 RES     
   26302 H6        -596.6140  -420.8629   773.7940 H6            1 RES     
   26303 H6        -595.6645  -421.2983   775.2285 H6            1 RES     
   26304 H6        -598.5849  -420.6174   775.1751 H6            1 RES     
   26305 H6        -597.8823  -422.1702   777.0164 H6            1 RES     
   26306 H6        -596.9276  -420.8823   777.7578 H6            1 RES     
   26307 H6        -599.1106  -419.5922   778.1032 H6            1 RES     
   26308 H6        -599.9354  -420.7652   777.0112 H6            1 RES     
   26309 H6        -598.8073  -421.5310   779.7642 H6            1 RES     
   26310 H6        -599.4908  -422.6515   778.5256 H6            1 RES     
   26311 H6        -601.0580  -420.3667   779.8674 H6            1 RES     
   26312 H6        -601.6299  -421.3673   778.4839 H6            1 RES     
   26313 H6        -601.4547  -423.4512   779.7837 H6            1 RES     
   26314 H6        -602.5925  -422.2599   780.5005 H6            1 RES     
   26315 H6        -600.8881  -421.6010   782.1928 H6            1 RES     
   26316 H6        -599.7311  -422.8205   781.5081 H6            1 RES     
   26317 H6        -601.2743  -423.3626   782.2548 H6            1 RES     
   26318 H6        -596.8782  -418.7771   774.5818 H6            1 RES     
   26319 H6        -596.1973  -419.0550   776.2140 H6            1 RES     
   26320 H6        -595.9332  -416.9282   775.6521 H6            1 RES     
   26321 H6        -597.0625  -415.6650   775.6809 H6            1 RES     
   26322 H6        -596.4787  -417.2154   778.2638 H6            1 RES     
   26323 H6        -598.3304  -415.5444   778.2818 H6            1 RES     
   26324 H6        -597.0479  -415.2607   779.5012 H6            1 RES     
   26325 H6        -596.0951  -413.3832   778.2034 H6            1 RES     
   26326 H6        -597.2164  -413.7146   776.8645 H6            1 RES     
   26327 H6        -598.0747  -411.8259   778.0027 H6            1 RES     
   26328 H6        -599.1514  -413.1890   778.3858 H6            1 RES     
   26329 H6        -598.0615  -413.4238   780.6394 H6            1 RES     
   26330 H6        -598.7954  -411.8122   780.3653 H6            1 RES     
   26331 H6        -595.7718  -412.4540   780.2214 H6            1 RES     
   26332 H6        -596.6484  -411.6153   781.5377 H6            1 RES     
   26333 H6        -597.2723  -409.7561   779.9721 H6            1 RES     
   26334 H6        -595.4887  -409.9771   780.1176 H6            1 RES     
   26335 H6        -596.3312  -410.5626   778.6505 H6            1 RES     
   26336 H6        -594.2878  -416.8937   777.6771 H6            1 RES     
   26337 H6        -594.6452  -415.5803   778.8382 H6            1 RES     
   26338 H6        -594.8066  -414.0282   776.6849 H6            1 RES     
   26339 H6        -594.2465  -415.4258   775.7578 H6            1 RES     
   26340 H6        -592.4648  -413.8335   776.3056 H6            1 RES     
   26341 H6        -592.7820  -413.9897   778.0694 H6            1 RES     
   26342 H6        -591.7887  -416.2828   776.2324 H6            1 RES     
   26343 H6        -592.1043  -416.3856   778.0040 H6            1 RES     
   26344 H6        -590.3428  -414.6846   778.4610 H6            1 RES     
   26345 H6        -589.7511  -416.1868   777.6645 H6            1 RES     
   26346 H6        -590.2794  -413.5115   776.2184 H6            1 RES     
   26347 H6        -589.6861  -415.0254   775.4450 H6            1 RES     
   26348 H6        -587.8936  -413.3565   775.8748 H6            1 RES     
   26349 H6        -588.2530  -413.3702   777.6380 H6            1 RES     
   26350 H6        -587.5380  -415.7831   777.7492 H6            1 RES     
   26351 H6        -586.2527  -414.7443   777.0563 H6            1 RES     
   26352 H6        -587.2505  -415.7710   775.9594 H6            1 RES     
   26353 C0        -604.1832  -428.1303   771.5406 C0            1 RES     
   26354 C0        -605.6296  -428.6157   771.6414 C0            1 RES     
   26355 C0        -606.3205  -427.9231   772.5784 C0            1 RES     
   26356 S1        -607.9289  -428.3741   772.6856 S1            1 RES     
   26357 C0        -607.7639  -429.5387   771.4533 C0            1 RES     
   26358 C0        -606.4518  -429.5044   770.9514 C0            1 RES     
   26359 C0        -605.5051  -426.8768   773.0912 C0            1 RES     
   26360 C0        -604.3409  -426.9278   772.4841 C0            1 RES     
   26361 C0        -603.5495  -425.7403   772.7470 C0            1 RES     
   26362 C0        -604.2296  -424.8793   773.5949 C0            1 RES     
   26363 S1        -605.8465  -425.4719   774.1341 S1            1 RES     
   26364 H2        -606.1558  -430.0656   770.0909 H2            1 RES     
   26365 H2        -602.6342  -425.4747   772.2466 H2            1 RES     
   26366 N3        -609.4161  -432.4873   769.7903 N3            1 RES     
   26367 C0        -608.4739  -431.6225   770.2632 C0            1 RES     
   26368 C0        -608.8312  -430.4418   770.9452 C0            1 RES     
   26369 C0        -610.2036  -430.2035   771.1263 C0            1 RES     
   26370 N3        -610.7192  -429.1149   771.7573 N3            1 RES     
   26371 S1        -612.3488  -429.3671   771.6322 S1            1 RES     
   26372 N3        -612.4678  -430.7978   770.8157 N3            1 RES     
   26373 C0        -611.1634  -431.1168   770.6136 C0            1 RES     
   26374 C0        -610.7494  -432.2617   769.9456 C0            1 RES     
   26375 H4        -607.4364  -431.8758   770.1339 H4            1 RES     
   26376 C5        -609.0037  -432.8532   764.3376 C5            1 RES     
   26377 C5        -608.6433  -431.5332   765.0211 C5            1 RES     
   26378 C5        -607.9675  -431.7104   766.3924 C5            1 RES     
   26379 C5        -606.6218  -432.4605   766.3397 C5            1 RES     
   26380 C5        -605.9972  -432.5424   767.7433 C5            1 RES     
   26381 C5        -604.7672  -433.4598   767.7937 C5            1 RES     
   26382 C5        -604.1940  -433.6036   769.2237 C5            1 RES     
   26383 C5        -603.2983  -432.4185   769.7014 C5            1 RES     
   26384 C5        -603.7922  -431.6276   770.9519 C5            1 RES     
   26385 C5        -603.9337  -432.5351   772.2086 C5            1 RES     
   26386 C5        -604.9377  -431.9721   773.2318 C5            1 RES     
   26387 C5        -605.4577  -433.0747   774.1790 C5            1 RES     
   26388 C5        -606.6600  -432.5749   775.0002 C5            1 RES     
   26389 C5        -607.4067  -433.7025   775.7354 C5            1 RES     
   26390 C5        -606.5802  -434.3826   776.8212 C5            1 RES     
   26391 C5        -602.8378  -430.4041   771.1433 C5            1 RES     
   26392 C0        -603.0758  -429.1476   772.0666 C0            1 RES     
   26393 C5        -601.6492  -428.4559   772.1901 C5            1 RES     
   26394 C5        -600.9087  -428.7203   773.5437 C5            1 RES     
   26395 C5        -601.3080  -427.7251   774.6826 C5            1 RES     
   26396 C5        -600.7261  -426.2975   774.5557 C5            1 RES     
   26397 C5        -601.2795  -425.2933   775.5831 C5            1 RES     
   26398 C5        -600.8098  -425.5042   777.0351 C5            1 RES     
   26399 C5        -599.2889  -425.3586   777.2584 C5            1 RES     
   26400 C5        -598.7435  -423.9796   776.8728 C5            1 RES     
   26401 C5        -599.3593  -428.8800   773.3914 C5            1 RES     
   26402 C5        -598.6133  -427.8544   772.4993 C5            1 RES     
   26403 C5        -597.0751  -427.9728   772.5912 C5            1 RES     
   26404 C5        -596.5212  -429.3476   772.1712 C5            1 RES     
   26405 C5        -594.9846  -429.4407   772.2600 C5            1 RES     
   26406 C5        -594.2563  -428.5404   771.2432 C5            1 RES     
   26407 C5        -592.7224  -428.6321   771.3333 C5            1 RES     
   26408 C5        -592.1674  -430.0169   770.9966 C5            1 RES     
   26409 H6        -608.0929  -433.4357   764.0911 H6            1 RES     
   26410 H6        -609.5380  -432.6410   763.3870 H6            1 RES     
   26411 H6        -609.6682  -433.4602   764.9885 H6            1 RES     
   26412 H6        -607.9868  -430.9389   764.3507 H6            1 RES     
   26413 H6        -609.5857  -430.9627   765.1770 H6            1 RES     
   26414 H6        -607.7999  -430.6980   766.8199 H6            1 RES     
   26415 H6        -608.6658  -432.2566   767.0643 H6            1 RES     
   26416 H6        -605.9184  -431.9447   765.6502 H6            1 RES     
   26417 H6        -606.8018  -433.4911   765.9680 H6            1 RES     
   26418 H6        -605.7431  -431.5212   768.0998 H6            1 RES     
   26419 H6        -606.7530  -432.9980   768.4126 H6            1 RES     
   26420 H6        -605.1153  -434.4666   767.4723 H6            1 RES     
   26421 H6        -603.9739  -433.1333   767.0873 H6            1 RES     
   26422 H6        -605.0333  -433.8361   769.9098 H6            1 RES     
   26423 H6        -603.5369  -434.4992   769.2164 H6            1 RES     
   26424 H6        -603.2111  -431.7087   768.8483 H6            1 RES     
   26425 H6        -602.2688  -432.7934   769.8896 H6            1 RES     
   26426 H6        -604.7745  -431.3343   770.6560 H6            1 RES     
   26427 H6        -604.3764  -433.4898   771.8767 H6            1 RES     
   26428 H6        -602.9544  -432.7982   772.6638 H6            1 RES     
   26429 H6        -604.5142  -431.1064   773.7835 H6            1 RES     
   26430 H6        -605.8260  -431.6270   772.6625 H6            1 RES     
   26431 H6        -604.6419  -433.4496   774.8335 H6            1 RES     
   26432 H6        -605.8250  -433.9191   773.5542 H6            1 RES     
   26433 H6        -606.3404  -431.7828   775.7100 H6            1 RES     
   26434 H6        -607.4000  -432.1316   774.2966 H6            1 RES     
   26435 H6        -607.7459  -434.4659   774.9999 H6            1 RES     
   26436 H6        -608.3115  -433.2669   776.2124 H6            1 RES     
   26437 H6        -606.2656  -433.6392   777.5831 H6            1 RES     
   26438 H6        -605.6871  -434.8787   776.3900 H6            1 RES     
   26439 H6        -607.2018  -435.1588   777.3173 H6            1 RES     
   26440 H6        -602.6549  -429.9586   770.1401 H6            1 RES     
   26441 H6        -601.8831  -430.8817   771.4657 H6            1 RES     
   26442 H6        -601.0096  -428.8478   771.3715 H6            1 RES     
   26443 H6        -601.6398  -427.3841   771.9481 H6            1 RES     
   26444 H6        -601.2476  -429.7211   773.8976 H6            1 RES     
   26445 H6        -602.4179  -427.6785   774.7220 H6            1 RES     
   26446 H6        -600.9563  -428.1367   775.6529 H6            1 RES     
   26447 H6        -599.6264  -426.3089   774.6491 H6            1 RES     
   26448 H6        -600.9701  -425.9046   773.5578 H6            1 RES     
   26449 H6        -600.9842  -424.2702   775.2689 H6            1 RES     
   26450 H6        -602.3874  -425.3254   775.5554 H6            1 RES     
   26451 H6        -601.1327  -426.5059   777.3868 H6            1 RES     
   26452 H6        -601.3208  -424.7464   777.6692 H6            1 RES     
   26453 H6        -598.7335  -426.1411   776.7022 H6            1 RES     
   26454 H6        -599.0883  -425.5133   778.3406 H6            1 RES     
   26455 H6        -599.2727  -423.1805   777.4344 H6            1 RES     
   26456 H6        -597.6618  -423.9266   777.1187 H6            1 RES     
   26457 H6        -598.8478  -423.7954   775.7839 H6            1 RES     
   26458 H6        -599.1794  -429.8715   772.9243 H6            1 RES     
   26459 H6        -598.9141  -428.9104   774.4099 H6            1 RES     
   26460 H6        -598.8514  -426.8163   772.7719 H6            1 RES     
   26461 H6        -598.9228  -427.9799   771.4424 H6            1 RES     
   26462 H6        -596.6554  -427.1859   771.9311 H6            1 RES     
   26463 H6        -596.7559  -427.7556   773.6344 H6            1 RES     
   26464 H6        -596.8479  -429.5931   771.1375 H6            1 RES     
   26465 H6        -596.9281  -430.1167   772.8603 H6            1 RES     
   26466 H6        -594.6562  -429.1912   773.2930 H6            1 RES     
   26467 H6        -594.7146  -430.4974   772.0556 H6            1 RES     
   26468 H6        -594.5222  -427.4806   771.4315 H6            1 RES     
   26469 H6        -594.5796  -428.8048   770.2127 H6            1 RES     
   26470 H6        -592.2934  -427.9093   770.6053 H6            1 RES     
   26471 H6        -592.3860  -428.3367   772.3508 H6            1 RES     
   26472 H6        -592.5042  -430.7755   771.7314 H6            1 RES     
   26473 H6        -591.0576  -429.9848   771.0290 H6            1 RES     
   26474 H6        -592.4830  -430.3217   769.9765 H6            1 RES     
   26475 C0        -613.0000  -435.5628   766.7246 C0            1 RES     
   26476 C0        -614.4962  -435.6293   767.0324 C0            1 RES     
   26477 C0        -614.7795  -435.0762   768.2361 C0            1 RES     
   26478 S1        -616.4145  -435.0675   768.5945 S1            1 RES     
   26479 C0        -616.8199  -435.8176   767.1198 C0            1 RES     
   26480 C0        -615.6549  -436.0084   766.3574 C0            1 RES     
   26481 C0        -613.5997  -434.4992   768.7818 C0            1 RES     
   26482 C0        -612.6157  -434.6956   767.9334 C0            1 RES     
   26483 C0        -611.4464  -433.9098   768.2812 C0            1 RES     
   26484 C0        -611.6762  -433.1797   769.4375 C0            1 RES     
   26485 S1        -613.3056  -433.4245   770.1733 S1            1 RES     
   26486 H2        -615.6857  -436.3527   765.3457 H2            1 RES     
   26487 H2        -610.5747  -433.7780   767.6636 H2            1 RES     
   26488 N3        -619.5729  -437.5613   765.2303 N3            1 RES     
   26489 C0        -618.3406  -437.1742   765.6673 C0            1 RES     
   26490 C0        -618.1864  -436.1943   766.6686 C0            1 RES     
   26491 C0        -619.3622  -435.6435   767.2047 C0            1 RES     
   26492 N3        -619.3935  -434.6883   768.1720 N3            1 RES     
   26493 S1        -621.0148  -434.4239   768.3619 S1            1 RES     
   26494 N3        -621.7151  -435.4592   767.2822 N3            1 RES     
   26495 C0        -620.6326  -436.0583   766.7226 C0            1 RES     
   26496 C0        -620.7200  -437.0257   765.7302 C0            1 RES     
   26497 H4        -617.4751  -437.6596   765.2522 H4            1 RES     
   26498 C5        -620.0741  -436.4160   759.8942 C5            1 RES     
   26499 C5        -619.2041  -435.5110   760.7678 C5            1 RES     
   26500 C5        -618.4401  -436.2643   761.8713 C5            1 RES     
   26501 C5        -617.4412  -437.3128   761.3432 C5            1 RES     
   26502 C5        -616.6889  -437.9740   762.5110 C5            1 RES     
   26503 C5        -615.8389  -439.1730   762.0673 C5            1 RES     
   26504 C5        -615.1515  -439.8842   763.2572 C5            1 RES     
   26505 C5        -613.8556  -439.1927   763.7841 C5            1 RES     
   26506 C5        -613.8786  -438.6969   765.2629 C5            1 RES     
   26507 C5        -614.1355  -439.8543   766.2715 C5            1 RES     
   26508 C5        -614.7418  -439.3569   767.5970 C5            1 RES     
   26509 C5        -615.4600  -440.4955   768.3526 C5            1 RES     
   26510 C5        -616.3006  -439.9410   769.5170 C5            1 RES     
   26511 C5        -617.2683  -440.9767   770.1172 C5            1 RES     
   26512 C5        -616.5707  -442.1484   770.7992 C5            1 RES     
   26513 C5        -612.5553  -437.9031   765.5147 C5            1 RES     
   26514 C0        -612.2308  -436.9580   766.7351 C0            1 RES     
   26515 C5        -610.6532  -436.7630   766.6921 C5            1 RES     
   26516 C5        -609.8604  -437.6091   767.7439 C5            1 RES     
   26517 C5        -609.7428  -436.9205   769.1436 C5            1 RES     
   26518 C5        -608.7440  -435.7422   769.2259 C5            1 RES     
   26519 C5        -608.7829  -434.9695   770.5569 C5            1 RES     
   26520 C5        -608.2111  -435.7192   771.7753 C5            1 RES     
   26521 C5        -606.7128  -436.0791   771.6779 C5            1 RES     
   26522 C5        -605.8004  -434.8594   771.5123 C5            1 RES     
   26523 C5        -608.4894  -438.1462   767.2135 C5            1 RES     
   26524 C5        -607.5782  -437.1574   766.4412 C5            1 RES     
   26525 C5        -606.1697  -437.7251   766.1539 C5            1 RES     
   26526 C5        -606.1682  -439.0144   765.3108 C5            1 RES     
   26527 C5        -604.7532  -439.5576   765.0269 C5            1 RES     
   26528 C5        -603.9176  -438.6420   764.1114 C5            1 RES     
   26529 C5        -602.5045  -439.1835   763.8297 C5            1 RES     
   26530 C5        -602.4936  -440.5067   763.0627 C5            1 RES     
   26531 H6        -619.4525  -437.1323   759.3198 H6            1 RES     
   26532 H6        -620.6354  -435.7937   759.1650 H6            1 RES     
   26533 H6        -620.8042  -436.9744   760.5178 H6            1 RES     
   26534 H6        -618.4884  -434.9562   760.1246 H6            1 RES     
   26535 H6        -619.8720  -434.7702   761.2608 H6            1 RES     
   26536 H6        -617.8879  -435.5112   762.4743 H6            1 RES     
   26537 H6        -619.1787  -436.7637   762.5366 H6            1 RES     
   26538 H6        -616.7105  -436.8373   760.6530 H6            1 RES     
   26539 H6        -618.0033  -438.0953   760.7914 H6            1 RES     
   26540 H6        -616.0630  -437.2165   763.0294 H6            1 RES     
   26541 H6        -617.4514  -438.3737   763.2079 H6            1 RES     
   26542 H6        -616.5429  -439.9013   761.6066 H6            1 RES     
   26543 H6        -615.0896  -438.8910   761.2967 H6            1 RES     
   26544 H6        -615.9154  -440.0614   764.0410 H6            1 RES     
   26545 H6        -614.8368  -440.8853   762.8932 H6            1 RES     
   26546 H6        -613.6584  -438.3188   763.1233 H6            1 RES     
   26547 H6        -612.9933  -439.8799   763.6426 H6            1 RES     
   26548 H6        -614.7390  -438.0660   765.2728 H6            1 RES     
   26549 H6        -614.9119  -440.5053   765.8343 H6            1 RES     
   26550 H6        -613.2455  -440.5033   766.4200 H6            1 RES     
   26551 H6        -613.9820  -438.8461   768.2257 H6            1 RES     
   26552 H6        -615.5357  -438.6250   767.3392 H6            1 RES     
   26553 H6        -614.7316  -441.2590   768.7003 H6            1 RES     
   26554 H6        -616.1705  -440.9811   767.6471 H6            1 RES     
   26555 H6        -615.6400  -439.5146   770.3013 H6            1 RES     
   26556 H6        -616.9424  -439.1218   769.1216 H6            1 RES     
   26557 H6        -617.9412  -441.3637   769.3196 H6            1 RES     
   26558 H6        -617.9008  -440.4637   770.8740 H6            1 RES     
   26559 H6        -615.9237  -441.7804   771.6226 H6            1 RES     
   26560 H6        -615.9627  -442.7268   770.0742 H6            1 RES     
   26561 H6        -617.3387  -442.8281   771.2272 H6            1 RES     
   26562 H6        -612.3775  -437.2538   764.6286 H6            1 RES     
   26563 H6        -611.7781  -438.7024   765.4930 H6            1 RES     
   26564 H6        -610.3014  -437.0615   765.6822 H6            1 RES     
   26565 H6        -610.3226  -435.7153   766.7114 H6            1 RES     
   26566 H6        -610.4591  -438.5320   767.9213 H6            1 RES     
   26567 H6        -610.7572  -436.5774   769.4417 H6            1 RES     
   26568 H6        -609.4154  -437.6795   769.8860 H6            1 RES     
   26569 H6        -607.7089  -436.0892   769.0638 H6            1 RES     
   26570 H6        -608.9811  -435.0226   768.4287 H6            1 RES     
   26571 H6        -608.2120  -434.0255   770.4321 H6            1 RES     
   26572 H6        -609.8309  -434.6792   770.7728 H6            1 RES     
   26573 H6        -608.7955  -436.6468   771.9467 H6            1 RES     
   26574 H6        -608.3474  -435.0685   772.6671 H6            1 RES     
   26575 H6        -606.5324  -436.7877   770.8438 H6            1 RES     
   26576 H6        -606.4252  -436.5936   772.6201 H6            1 RES     
   26577 H6        -605.9501  -434.1446   772.3494 H6            1 RES     
   26578 H6        -604.7393  -435.1870   771.5136 H6            1 RES     
   26579 H6        -605.9892  -434.3431   770.5489 H6            1 RES     
   26580 H6        -608.7162  -438.9662   766.4996 H6            1 RES     
   26581 H6        -607.9414  -438.5971   768.0695 H6            1 RES     
   26582 H6        -607.4175  -436.2216   766.9951 H6            1 RES     
   26583 H6        -608.0567  -436.8759   765.4819 H6            1 RES     
   26584 H6        -605.6096  -436.9308   765.6188 H6            1 RES     
   26585 H6        -605.6536  -437.9217   767.1195 H6            1 RES     
   26586 H6        -606.6994  -438.8445   764.3493 H6            1 RES     
   26587 H6        -606.7064  -439.8047   765.8747 H6            1 RES     
   26588 H6        -604.2192  -439.7242   765.9884 H6            1 RES     
   26589 H6        -604.8807  -440.5395   764.5259 H6            1 RES     
   26590 H6        -603.7875  -437.6538   764.5969 H6            1 RES     
   26591 H6        -604.4515  -438.4912   763.1477 H6            1 RES     
   26592 H6        -601.9665  -438.4306   763.2131 H6            1 RES     
   26593 H6        -601.9500  -439.3060   764.7852 H6            1 RES     
   26594 H6        -602.9566  -441.3204   763.6564 H6            1 RES     
   26595 H6        -601.4432  -440.7990   762.8509 H6            1 RES     
   26596 H6        -603.0322  -440.3980   762.0977 H6            1 RES     
   26597 C0        -624.3667  -438.4673   762.4195 C0            1 RES     
   26598 C0        -625.7414  -438.1974   763.0321 C0            1 RES     
   26599 C0        -625.6532  -437.9645   764.3637 C0            1 RES     
   26600 S1        -627.1253  -437.6016   765.0730 S1            1 RES     
   26601 C0        -627.9592  -437.7417   763.5942 C0            1 RES     
   26602 C0        -627.0426  -438.0205   762.5661 C0            1 RES     
   26603 C0        -624.2847  -437.9286   764.7488 C0            1 RES     
   26604 C0        -623.5509  -438.1365   763.6788 C0            1 RES     
   26605 C0        -622.1506  -437.8488   763.9279 C0            1 RES     
   26606 C0        -621.9605  -437.4553   765.2439 C0            1 RES     
   26607 S1        -623.4585  -437.4362   766.2498 S1            1 RES     
   26608 H2        -627.3275  -438.0304   761.5357 H2            1 RES     
   26609 H2        -621.3802  -437.7928   763.1782 H2            1 RES     
   26610 N3        -631.3710  -438.0082   762.0199 N3            1 RES     
   26611 C0        -630.0317  -438.1288   762.2461 C0            1 RES     
   26612 C0        -629.4223  -437.5696   763.3873 C0            1 RES     
   26613 C0        -630.2611  -436.8925   764.2879 C0            1 RES     
   26614 N3        -629.8376  -436.2937   765.4330 N3            1 RES     
   26615 S1        -631.2357  -435.6517   766.0396 S1            1 RES     
   26616 N3        -632.3839  -436.0850   764.9343 N3            1 RES     
   26617 C0        -631.6514  -436.7733   764.0213 C0            1 RES     
   26618 C0        -632.1931  -437.3424   762.8762 C0            1 RES     
   26619 H4        -629.4436  -438.6944   761.5451 H4            1 RES     
   26620 C5        -632.2066  -435.2591   757.3530 C5            1 RES     
   26621 C5        -630.9721  -434.9322   758.1947 C5            1 RES     
   26622 C5        -630.3548  -436.1584   758.8904 C5            1 RES     
   26623 C5        -629.8450  -437.2430   757.9209 C5            1 RES     
   26624 C5        -629.1989  -438.4006   758.7017 C5            1 RES     
   26625 C5        -628.8662  -439.6056   757.8105 C5            1 RES     
   26626 C5        -628.2941  -440.7971   758.6151 C5            1 RES     
   26627 C5        -626.7819  -440.6837   758.9830 C5            1 RES     
   26628 C5        -626.4314  -440.6568   760.5027 C5            1 RES     
   26629 C5        -626.9138  -441.9375   761.2444 C5            1 RES     
   26630 C5        -627.1284  -441.7003   762.7509 C5            1 RES     
   26631 C5        -628.0704  -442.7601   763.3615 C5            1 RES     
   26632 C5        -628.5072  -442.3577   764.7817 C5            1 RES     
   26633 C5        -629.6695  -443.2078   765.3256 C5            1 RES     
   26634 C5        -629.3120  -444.6744   765.5399 C5            1 RES     
   26635 C5        -624.8983  -440.3771   760.6282 C5            1 RES     
   26636 C0        -624.1108  -439.9617   761.9302 C0            1 RES     
   26637 C5        -622.5804  -440.2146   761.5797 C5            1 RES     
   26638 C5        -621.9742  -441.5185   762.1984 C5            1 RES     
   26639 C5        -621.4397  -441.3319   763.6567 C5            1 RES     
   26640 C5        -620.1054  -440.5599   763.7848 C5            1 RES     
   26641 C5        -619.6986  -440.2322   765.2330 C5            1 RES     
   26642 C5        -619.2432  -441.4347   766.0816 C5            1 RES     
   26643 C5        -617.9787  -442.1565   765.5679 C5            1 RES     
   26644 C5        -616.7459  -441.2499   765.4906 C5            1 RES     
   26645 C5        -620.9479  -442.2397   761.2625 C5            1 RES     
   26646 C5        -619.8780  -441.3663   760.5576 C5            1 RES     
   26647 C5        -618.7928  -442.1971   759.8360 C5            1 RES     
   26648 C5        -619.3376  -443.1292   758.7370 C5            1 RES     
   26649 C5        -618.2377  -443.9405   758.0229 C5            1 RES     
   26650 C5        -617.2827  -443.0707   757.1825 C5            1 RES     
   26651 C5        -616.1837  -443.8805   756.4713 C5            1 RES     
   26652 C5        -616.7202  -444.8684   755.4343 C5            1 RES     
   26653 H6        -631.9449  -435.9205   756.5023 H6            1 RES     
   26654 H6        -632.6258  -434.3190   756.9350 H6            1 RES     
   26655 H6        -632.9855  -435.7466   757.9769 H6            1 RES     
   26656 H6        -630.2105  -434.4382   757.5546 H6            1 RES     
   26657 H6        -631.2801  -434.2116   758.9845 H6            1 RES     
   26658 H6        -629.5051  -435.8019   759.5123 H6            1 RES     
   26659 H6        -631.1162  -436.6018   759.5694 H6            1 RES     
   26660 H6        -629.1023  -436.8120   757.2145 H6            1 RES     
   26661 H6        -630.7064  -437.6387   757.3429 H6            1 RES     
   26662 H6        -628.2909  -438.0360   759.2280 H6            1 RES     
   26663 H6        -629.9451  -438.7555   759.4393 H6            1 RES     
   26664 H6        -629.8292  -439.9385   757.3632 H6            1 RES     
   26665 H6        -628.1816  -439.3331   756.9787 H6            1 RES     
   26666 H6        -628.9557  -440.9736   759.4871 H6            1 RES     
   26667 H6        -628.3839  -441.6940   757.9660 H6            1 RES     
   26668 H6        -626.4005  -439.7471   758.5176 H6            1 RES     
   26669 H6        -626.2254  -441.5128   758.4945 H6            1 RES     
   26670 H6        -627.0233  -439.8412   760.8533 H6            1 RES     
   26671 H6        -627.9154  -442.1863   760.8537 H6            1 RES     
   26672 H6        -626.2781  -442.8244   761.0328 H6            1 RES     
   26673 H6        -626.1620  -441.6311   763.2937 H6            1 RES     
   26674 H6        -627.6622  -440.7327   762.8568 H6            1 RES     
   26675 H6        -627.5956  -443.7645   763.3480 H6            1 RES     
   26676 H6        -628.9932  -442.7977   762.7408 H6            1 RES     
   26677 H6        -627.6395  -442.3833   765.4744 H6            1 RES     
   26678 H6        -628.8894  -441.3128   764.7436 H6            1 RES     
   26679 H6        -630.5375  -443.1389   764.6323 H6            1 RES     
   26680 H6        -629.9832  -442.7826   766.3037 H6            1 RES     
   26681 H6        -628.4709  -444.7610   766.2589 H6            1 RES     
   26682 H6        -629.0385  -445.1618   764.5821 H6            1 RES     
   26683 H6        -630.1940  -445.2049   765.9590 H6            1 RES     
   26684 H6        -624.6411  -439.5744   759.9017 H6            1 RES     
   26685 H6        -624.4416  -441.3199   760.2460 H6            1 RES     
   26686 H6        -622.4929  -440.2908   760.4755 H6            1 RES     
   26687 H6        -621.9216  -439.3557   761.7682 H6            1 RES     
   26688 H6        -622.8142  -442.2456   762.2855 H6            1 RES     
   26689 H6        -622.2303  -440.8203   764.2474 H6            1 RES     
   26690 H6        -621.2821  -442.3349   764.1079 H6            1 RES     
   26691 H6        -619.2777  -441.1207   763.3172 H6            1 RES     
   26692 H6        -620.1995  -439.6022   763.2522 H6            1 RES     
   26693 H6        -618.8702  -439.4935   765.2068 H6            1 RES     
   26694 H6        -620.5496  -439.7354   765.7411 H6            1 RES     
   26695 H6        -620.0722  -442.1684   766.1587 H6            1 RES     
   26696 H6        -619.0294  -441.0627   767.1078 H6            1 RES     
   26697 H6        -618.1624  -442.6108   764.5728 H6            1 RES     
   26698 H6        -617.7490  -442.9833   766.2742 H6            1 RES     
   26699 H6        -616.5309  -440.7994   766.4830 H6            1 RES     
   26700 H6        -615.8646  -441.8480   765.1763 H6            1 RES     
   26701 H6        -616.8858  -440.4430   764.7424 H6            1 RES     
   26702 H6        -621.5317  -442.7165   760.4468 H6            1 RES     
   26703 H6        -620.4663  -443.0564   761.8434 H6            1 RES     
   26704 H6        -619.3399  -440.7183   761.2640 H6            1 RES     
   26705 H6        -620.3654  -440.6937   759.8238 H6            1 RES     
   26706 H6        -618.0817  -441.4721   759.3892 H6            1 RES     
   26707 H6        -618.2413  -442.8044   760.5872 H6            1 RES     
   26708 H6        -619.9115  -442.5432   757.9870 H6            1 RES     
   26709 H6        -620.0228  -443.8651   759.2071 H6            1 RES     
   26710 H6        -617.6601  -444.5242   758.7732 H6            1 RES     
   26711 H6        -618.7528  -444.6554   757.3484 H6            1 RES     
   26712 H6        -616.7652  -442.3461   757.8433 H6            1 RES     
   26713 H6        -617.8657  -442.5007   756.4265 H6            1 RES     
   26714 H6        -615.5184  -443.1632   755.9428 H6            1 RES     
   26715 H6        -615.5731  -444.4280   757.2216 H6            1 RES     
   26716 H6        -617.3389  -445.6556   755.9102 H6            1 RES     
   26717 H6        -615.8671  -445.3689   754.9291 H6            1 RES     
   26718 H6        -617.3219  -444.3353   754.6683 H6            1 RES     
   26719 C0        -636.5376  -436.6657   760.2295 C0            1 RES     
   26720 C0        -637.6445  -436.2117   761.1816 C0            1 RES     
   26721 C0        -637.2982  -436.4133   762.4757 C0            1 RES     
   26722 S1        -638.4515  -435.8754   763.5630 S1            1 RES     
   26723 C0        -639.4833  -435.3361   762.3194 C0            1 RES     
   26724 C0        -638.8649  -435.5478   761.0753 C0            1 RES     
   26725 C0        -635.9557  -436.8781   762.5401 C0            1 RES     
   26726 C0        -635.4902  -436.9613   761.3142 C0            1 RES     
   26727 C0        -634.0535  -437.1651   761.3015 C0            1 RES     
   26728 C0        -633.5611  -437.2439   762.5954 C0            1 RES     
   26729 S1        -634.8112  -437.0996   763.8888 S1            1 RES     
   26730 H2        -639.2785  -435.1753   760.1625 H2            1 RES     
   26731 H2        -633.4215  -437.1111   760.4319 H2            1 RES     
   26732 N3        -642.9751  -434.1597   761.5365 N3            1 RES     
   26733 C0        -641.7341  -434.7127   761.4206 C0            1 RES     
   26734 C0        -640.8199  -434.7069   762.4934 C0            1 RES     
   26735 C0        -641.2515  -434.1157   763.6924 C0            1 RES     
   26736 N3        -640.4971  -434.0227   764.8200 N3            1 RES     
   26737 S1        -641.5032  -433.2203   765.8586 S1            1 RES     
   26738 N3        -642.8731  -432.9700   764.9706 N3            1 RES     
   26739 C0        -642.5462  -433.5378   763.7812 C0            1 RES     
   26740 C0        -643.4010  -433.5705   762.6872 C0            1 RES     
   26741 H4        -641.4714  -435.1898   760.4930 H4            1 RES     
   26742 C5        -643.4965  -430.0464   757.9524 C5            1 RES     
   26743 C5        -642.1184  -430.3411   758.5468 C5            1 RES     
   26744 C5        -641.8519  -431.8390   758.7795 C5            1 RES     
   26745 C5        -641.8723  -432.6899   757.4943 C5            1 RES     
   26746 C5        -641.5444  -434.1580   757.8169 C5            1 RES     
   26747 C5        -641.7589  -435.0922   756.6176 C5            1 RES     
   26748 C5        -641.5079  -436.5774   756.9715 C5            1 RES     
   26749 C5        -640.0080  -437.0067   757.0053 C5            1 RES     
   26750 C5        -639.4591  -437.5254   758.3702 C5            1 RES     
   26751 C5        -640.2301  -438.7773   758.8813 C5            1 RES     
   26752 C5        -640.1404  -438.9410   760.4100 C5            1 RES     
   26753 C5        -641.2852  -439.8234   760.9522 C5            1 RES     
   26754 C5        -641.3600  -439.7483   762.4880 C5            1 RES     
   26755 C5        -642.6501  -440.3576   763.0657 C5            1 RES     
   26756 C5        -642.7734  -441.8612   762.8454 C5            1 RES     
   26757 C5        -637.9185  -437.7376   758.2088 C5            1 RES     
   26758 C0        -636.8634  -437.9603   759.3600 C0            1 RES     
   26759 C5        -635.5689  -438.5192   758.6247 C5            1 RES     
   26760 C5        -635.3495  -440.0624   758.7688 C5            1 RES     
   26761 C5        -634.5845  -440.4689   760.0714 C5            1 RES     
   26762 C5        -633.0656  -440.1761   760.0722 C5            1 RES     
   26763 C5        -632.3743  -440.4147   761.4270 C5            1 RES     
   26764 C5        -632.2297  -441.8901   761.8462 C5            1 RES     
   26765 C5        -631.3616  -442.7551   760.9069 C5            1 RES     
   26766 C5        -629.9216  -442.2505   760.7678 C5            1 RES     
   26767 C5        -634.7627  -440.7363   757.4839 C5            1 RES     
   26768 C5        -633.5736  -440.0326   756.7801 C5            1 RES     
   26769 C5        -632.9382  -440.8859   755.6591 C5            1 RES     
   26770 C5        -633.9098  -441.2630   754.5246 C5            1 RES     
   26771 C5        -633.2532  -442.1048   753.4119 C5            1 RES     
   26772 C5        -632.1915  -441.3325   752.6050 C5            1 RES     
   26773 C5        -631.5348  -442.1735   751.4955 C5            1 RES     
   26774 C5        -632.5086  -442.6221   750.4048 C5            1 RES     
   26775 H6        -643.5912  -430.4756   756.9344 H6            1 RES     
   26776 H6        -643.6342  -428.9471   757.8711 H6            1 RES     
   26777 H6        -644.2974  -430.4556   758.6042 H6            1 RES     
   26778 H6        -641.3337  -429.9165   757.8853 H6            1 RES     
   26779 H6        -642.0558  -429.8271   759.5316 H6            1 RES     
   26780 H6        -640.8538  -431.9341   759.2596 H6            1 RES     
   26781 H6        -642.6142  -432.2289   759.4897 H6            1 RES     
   26782 H6        -641.1355  -432.2981   756.7595 H6            1 RES     
   26783 H6        -642.8882  -432.6401   757.0492 H6            1 RES     
   26784 H6        -640.5026  -434.2341   758.1954 H6            1 RES     
   26785 H6        -642.2548  -434.4884   758.5998 H6            1 RES     
   26786 H6        -642.8304  -434.9947   756.3337 H6            1 RES     
   26787 H6        -641.1465  -434.7921   755.7402 H6            1 RES     
   26788 H6        -642.0613  -436.8079   757.9041 H6            1 RES     
   26789 H6        -641.9803  -437.1819   756.1683 H6            1 RES     
   26790 H6        -639.4066  -436.1217   756.6980 H6            1 RES     
   26791 H6        -639.8326  -437.7779   756.2243 H6            1 RES     
   26792 H6        -639.6913  -436.7161   759.0256 H6            1 RES     
   26793 H6        -641.3018  -438.6086   758.6793 H6            1 RES     
   26794 H6        -639.9612  -439.7046   758.3308 H6            1 RES     
   26795 H6        -639.1398  -439.3083   760.7219 H6            1 RES     
   26796 H6        -640.3024  -437.9375   760.8564 H6            1 RES     
   26797 H6        -641.1776  -440.8709   760.5979 H6            1 RES     
   26798 H6        -642.2456  -439.4165   760.5642 H6            1 RES     
   26799 H6        -640.4620  -440.2184   762.9418 H6            1 RES     
   26800 H6        -641.3751  -438.6747   762.7821 H6            1 RES     
   26801 H6        -643.5342  -439.8477   762.6216 H6            1 RES     
   26802 H6        -642.6645  -440.1670   764.1608 H6            1 RES     
   26803 H6        -641.9167  -442.3873   763.3158 H6            1 RES     
   26804 H6        -642.8143  -442.1033   761.7640 H6            1 RES     
   26805 H6        -643.7135  -442.2207   763.3166 H6            1 RES     
   26806 H6        -637.5140  -436.8636   757.6512 H6            1 RES     
   26807 H6        -637.8589  -438.6157   757.5242 H6            1 RES     
   26808 H6        -635.6674  -438.2903   757.5427 H6            1 RES     
   26809 H6        -634.6429  -437.9746   758.8552 H6            1 RES     
   26810 H6        -636.3621  -440.5163   758.8706 H6            1 RES     
   26811 H6        -635.0694  -439.9519   760.9277 H6            1 RES     
   26812 H6        -634.7071  -441.5619   760.2284 H6            1 RES     
   26813 H6        -632.5451  -440.7845   759.3125 H6            1 RES     
   26814 H6        -632.9102  -439.1185   759.8133 H6            1 RES     
   26815 H6        -631.3600  -439.9649   761.3881 H6            1 RES     
   26816 H6        -632.9320  -439.8701   762.2153 H6            1 RES     
   26817 H6        -633.2357  -442.3501   761.9345 H6            1 RES     
   26818 H6        -631.7628  -441.9106   762.8556 H6            1 RES     
   26819 H6        -631.8233  -442.8274   759.9009 H6            1 RES     
   26820 H6        -631.3228  -443.7820   761.3301 H6            1 RES     
   26821 H6        -629.4324  -442.1897   761.7633 H6            1 RES     
   26822 H6        -629.3421  -442.9530   760.1323 H6            1 RES     
   26823 H6        -629.8891  -441.2547   760.2800 H6            1 RES     
   26824 H6        -635.5799  -440.7691   756.7325 H6            1 RES     
   26825 H6        -634.5031  -441.7881   757.7341 H6            1 RES     
   26826 H6        -632.7575  -439.7984   757.4784 H6            1 RES     
   26827 H6        -633.9079  -439.0661   756.3529 H6            1 RES     
   26828 H6        -632.0969  -440.2925   755.2455 H6            1 RES     
   26829 H6        -632.5199  -441.8159   756.1035 H6            1 RES     
   26830 H6        -634.3558  -440.3465   754.0813 H6            1 RES     
   26831 H6        -634.7274  -441.8804   754.9517 H6            1 RES     
   26832 H6        -632.8029  -443.0203   753.8551 H6            1 RES     
   26833 H6        -634.0655  -442.4159   752.7229 H6            1 RES     
   26834 H6        -631.3757  -441.0091   753.2826 H6            1 RES     
   26835 H6        -632.6522  -440.4263   752.1543 H6            1 RES     
   26836 H6        -630.7502  -441.5504   751.0132 H6            1 RES     
   26837 H6        -631.0417  -443.0651   751.9399 H6            1 RES     
   26838 H6        -633.2803  -443.3068   750.8104 H6            1 RES     
   26839 H6        -631.9497  -443.1716   749.6178 H6            1 RES     
   26840 H6        -633.0003  -441.7415   749.9402 H6            1 RES     
   26841 C0        -647.6001  -430.9559   761.3204 C0            1 RES     
   26842 C0        -648.3485  -430.5084   762.5764 C0            1 RES     
   26843 C0        -647.9110  -431.1687   763.6754 C0            1 RES     
   26844 S1        -648.6558  -430.6709   765.0893 S1            1 RES     
   26845 C0        -649.6137  -429.5240   764.2713 C0            1 RES     
   26846 C0        -649.2815  -429.5273   762.9058 C0            1 RES     
   26847 C0        -646.8038  -431.9898   763.3253 C0            1 RES     
   26848 C0        -646.5691  -431.8380   762.0414 C0            1 RES     
   26849 C0        -645.2984  -432.4245   761.6582 C0            1 RES     
   26850 C0        -644.6838  -433.0137   762.7528 C0            1 RES     
   26851 S1        -645.6206  -432.9088   764.2915 S1            1 RES     
   26852 H2        -649.6717  -428.8034   762.2225 H2            1 RES     
   26853 H2        -644.8127  -432.2984   760.7059 H2            1 RES     
   26854 N3        -652.5903  -427.2378   764.5921 N3            1 RES     
   26855 C0        -651.6324  -428.0583   764.0738 C0            1 RES     
   26856 C0        -650.6273  -428.6240   764.8840 C0            1 RES     
   26857 C0        -650.6656  -428.3132   766.2534 C0            1 RES     
   26858 N3        -649.7729  -428.7703   767.1717 N3            1 RES     
   26859 S1        -650.2994  -428.0580   768.5682 S1            1 RES     
   26860 N3        -651.6188  -427.1841   768.0953 N3            1 RES     
   26861 C0        -651.6690  -427.4469   766.7640 C0            1 RES     
   26862 C0        -652.6307  -426.9164   765.9141 C0            1 RES     
   26863 H4        -651.6758  -428.2967   763.0258 H4            1 RES     
   26864 C5        -652.2140  -422.2831   762.2801 C5            1 RES     
   26865 C5        -650.9429  -423.1139   762.4631 C5            1 RES     
   26866 C5        -651.1589  -424.6259   762.2733 C5            1 RES     
   26867 C5        -651.6405  -425.0218   760.8635 C5            1 RES     
   26868 C5        -651.7766  -426.5502   760.7519 C5            1 RES     
   26869 C5        -652.4549  -426.9926   759.4476 C5            1 RES     
   26870 C5        -652.6641  -428.5242   759.3790 C5            1 RES     
   26871 C5        -651.4027  -429.3482   758.9729 C5            1 RES     
   26872 C5        -650.8714  -430.3760   760.0190 C5            1 RES     
   26873 C5        -651.9345  -431.4529   760.3838 C5            1 RES     
   26874 C5        -651.6908  -432.0751   761.7714 C5            1 RES     
   26875 C5        -652.9756  -432.7183   762.3361 C5            1 RES     
   26876 C5        -652.8051  -433.0781   763.8231 C5            1 RES     
   26877 C5        -654.1298  -433.4413   764.5179 C5            1 RES     
   26878 C5        -654.7747  -434.7163   763.9861 C5            1 RES     
   26879 C5        -649.5273  -430.9559   759.4698 C5            1 RES     
   26880 C0        -648.4557  -431.7931   760.2690 C0            1 RES     
   26881 C5        -647.5367  -432.4527   759.1513 C5            1 RES     
   26882 C5        -647.8240  -433.9670   758.8778 C5            1 RES     
   26883 C5        -647.0626  -434.9348   759.8427 C5            1 RES     
   26884 C5        -645.5485  -435.0945   759.5697 C5            1 RES     
   26885 C5        -644.7929  -435.9034   760.6397 C5            1 RES     
   26886 C5        -645.0889  -437.4152   760.6590 C5            1 RES     
   26887 C5        -644.6979  -438.1750   759.3730 C5            1 RES     
   26888 C5        -643.2066  -438.0780   759.0349 C5            1 RES     
   26889 C5        -647.6805  -434.3719   757.3729 C5            1 RES     
   26890 C5        -646.4363  -433.8571   756.6036 C5            1 RES     
   26891 C5        -646.2840  -434.4876   755.2009 C5            1 RES     
   26892 C5        -647.4746  -434.2271   754.2586 C5            1 RES     
   26893 C5        -647.2974  -434.8555   752.8615 C5            1 RES     
   26894 C5        -646.1638  -434.2120   752.0395 C5            1 RES     
   26895 C5        -645.9860  -434.8407   750.6457 C5            1 RES     
   26896 C5        -647.1962  -434.6577   749.7286 C5            1 RES     
   26897 H6        -652.5875  -422.3508   761.2383 H6            1 RES     
   26898 H6        -651.9890  -421.2159   762.4909 H6            1 RES     
   26899 H6        -653.0055  -422.6226   762.9814 H6            1 RES     
   26900 H6        -650.1628  -422.7529   761.7597 H6            1 RES     
   26901 H6        -650.5759  -422.9499   763.5005 H6            1 RES     
   26902 H6        -650.1921  -425.1339   762.4804 H6            1 RES     
   26903 H6        -651.8998  -424.9757   763.0258 H6            1 RES     
   26904 H6        -650.9262  -424.6558   760.0940 H6            1 RES     
   26905 H6        -652.6341  -424.5603   760.6830 H6            1 RES     
   26906 H6        -650.7770  -427.0234   760.8575 H6            1 RES     
   26907 H6        -652.4393  -426.8815   761.5753 H6            1 RES     
   26908 H6        -653.4619  -426.5192   759.4433 H6            1 RES     
   26909 H6        -651.9071  -426.6339   758.5498 H6            1 RES     
   26910 H6        -653.1261  -428.8522   760.3320 H6            1 RES     
   26911 H6        -653.4180  -428.7089   758.5845 H6            1 RES     
   26912 H6        -650.5911  -428.6185   758.7533 H6            1 RES     
   26913 H6        -651.6046  -429.8739   758.0144 H6            1 RES     
   26914 H6        -650.7276  -429.7628   760.8803 H6            1 RES     
   26915 H6        -652.9066  -430.9383   760.4735 H6            1 RES     
   26916 H6        -652.0686  -432.2150   759.5859 H6            1 RES     
   26917 H6        -650.8357  -432.7835   761.7552 H6            1 RES     
   26918 H6        -651.4463  -431.2431   762.4645 H6            1 RES     
   26919 H6        -653.2725  -433.6023   761.7320 H6            1 RES     
   26920 H6        -653.7908  -431.9629   762.2804 H6            1 RES     
   26921 H6        -652.0598  -433.8931   763.9402 H6            1 RES     
   26922 H6        -652.4217  -432.1787   764.3554 H6            1 RES     
   26923 H6        -654.8475  -432.5967   764.4160 H6            1 RES     
   26924 H6        -653.9264  -433.5835   765.6015 H6            1 RES     
   26925 H6        -654.0842  -435.5757   764.1152 H6            1 RES     
   26926 H6        -655.0449  -434.6097   762.9158 H6            1 RES     
   26927 H6        -655.7050  -434.9185   764.5596 H6            1 RES     
   26928 H6        -648.9382  -430.1078   759.0553 H6            1 RES     
   26929 H6        -649.8592  -431.5750   758.6038 H6            1 RES     
   26930 H6        -647.7043  -431.8992   758.2035 H6            1 RES     
   26931 H6        -646.4598  -432.2828   759.2880 H6            1 RES     
   26932 H6        -648.9050  -434.1268   759.0962 H6            1 RES     
   26933 H6        -647.2233  -434.5765   760.8826 H6            1 RES     
   26934 H6        -647.5178  -435.9452   759.7635 H6            1 RES     
   26935 H6        -645.3714  -435.5746   758.5918 H6            1 RES     
   26936 H6        -645.0888  -434.0959   759.5368 H6            1 RES     
   26937 H6        -643.7029  -435.7661   760.4795 H6            1 RES     
   26938 H6        -645.0218  -435.4795   761.6382 H6            1 RES     
   26939 H6        -646.1676  -437.5786   760.8618 H6            1 RES     
   26940 H6        -644.5186  -437.8606   761.5039 H6            1 RES     
   26941 H6        -645.2936  -437.8169   758.5086 H6            1 RES     
   26942 H6        -644.9432  -439.2483   759.5248 H6            1 RES     
   26943 H6        -642.5905  -438.4513   759.8806 H6            1 RES     
   26944 H6        -642.9883  -438.6971   758.1391 H6            1 RES     
   26945 H6        -642.9142  -437.0344   758.7988 H6            1 RES     
   26946 H6        -648.5590  -433.9522   756.8385 H6            1 RES     
   26947 H6        -647.7523  -435.4794   757.3054 H6            1 RES     
   26948 H6        -645.4994  -434.0769   757.1350 H6            1 RES     
   26949 H6        -646.4873  -432.7548   756.5006 H6            1 RES     
   26950 H6        -645.3602  -434.0608   754.7588 H6            1 RES     
   26951 H6        -646.1402  -435.5853   755.3098 H6            1 RES     
   26952 H6        -647.6486  -433.1344   754.1537 H6            1 RES     
   26953 H6        -648.3823  -434.6865   754.7025 H6            1 RES     
   26954 H6        -647.1191  -435.9485   752.9655 H6            1 RES     
   26955 H6        -648.2551  -434.7098   752.3202 H6            1 RES     
   26956 H6        -645.2005  -434.3442   752.5722 H6            1 RES     
   26957 H6        -646.3561  -433.1224   751.9286 H6            1 RES     
   26958 H6        -645.1149  -434.3507   750.1583 H6            1 RES     
   26959 H6        -645.7596  -435.9242   750.7467 H6            1 RES     
   26960 H6        -648.0864  -435.1852   750.1262 H6            1 RES     
   26961 H6        -646.9675  -435.0867   748.7300 H6            1 RES     
   26962 H6        -647.4277  -433.5786   749.6056 H6            1 RES     
   26963 C0        -655.8717  -422.9460   766.1778 C0            1 RES     
   26964 C0        -656.2451  -422.6941   767.6390 C0            1 RES     
   26965 C0        -655.9021  -423.7422   768.4257 C0            1 RES     
   26966 S1        -656.2334  -423.4915   770.0472 S1            1 RES     
   26967 C0        -656.8610  -421.9346   769.7571 C0            1 RES     
   26968 C0        -656.7437  -421.6314   768.3899 C0            1 RES     
   26969 C0        -655.1909  -424.7015   767.6534 C0            1 RES     
   26970 C0        -655.1016  -424.2531   766.4216 C0            1 RES     
   26971 C0        -654.1645  -425.0343   765.6359 C0            1 RES     
   26972 C0        -653.6334  -426.0659   766.3951 C0            1 RES     
   26973 S1        -654.2567  -426.1568   768.0861 S1            1 RES     
   26974 H2        -656.9632  -420.6602   768.0005 H2            1 RES     
   26975 H2        -653.8032  -424.7770   764.6551 H2            1 RES     
   26976 N3        -658.8339  -419.1021   771.2650 N3            1 RES     
   26977 C0        -658.2854  -419.9696   770.3673 C0            1 RES     
   26978 C0        -657.4220  -421.0063   770.7751 C0            1 RES     
   26979 C0        -657.1625  -421.1123   772.1516 C0            1 RES     
   26980 N3        -656.3527  -422.0497   772.7124 N3            1 RES     
   26981 S1        -656.4117  -421.6593   774.3183 S1            1 RES     
   26982 N3        -657.4187  -420.3513   774.3723 N3            1 RES     
   26983 C0        -657.7394  -420.1878   773.0630 C0            1 RES     
   26984 C0        -658.5796  -419.1838   772.5997 C0            1 RES     
   26985 H4        -658.5520  -419.8686   769.3301 H4            1 RES     
   26986 C5        -657.1626  -414.0030   770.1505 C5            1 RES     
   26987 C5        -656.2270  -415.1732   769.8432 C5            1 RES     
   26988 C5        -656.9569  -416.4388   769.3592 C5            1 RES     
   26989 C5        -657.7352  -416.2527   768.0418 C5            1 RES     
   26990 C5        -658.3851  -417.5786   767.6099 C5            1 RES     
   26991 C5        -659.3476  -417.4106   766.4257 C5            1 RES     
   26992 C5        -660.0606  -418.7315   766.0501 C5            1 RES     
   26993 C5        -659.2144  -419.7204   765.1894 C5            1 RES     
   26994 C5        -658.9132  -421.1153   765.8192 C5            1 RES     
   26995 C5        -660.2112  -421.9073   766.1522 C5            1 RES     
   26996 C5        -659.9959  -422.9506   767.2645 C5            1 RES     
   26997 C5        -661.3286  -423.3424   767.9378 C5            1 RES     
   26998 C5        -661.0806  -424.1543   769.2220 C5            1 RES     
   26999 C5        -662.3394  -424.3170   770.0927 C5            1 RES     
   27000 C5        -663.4388  -425.1454   769.4372 C5            1 RES     
   27001 C5        -657.9289  -421.8626   764.8615 C5            1 RES     
   27002 C0        -657.0950  -423.1629   765.1806 C0            1 RES     
   27003 C5        -656.6134  -423.6971   763.7623 C5            1 RES     
   27004 C5        -657.4224  -424.9202   763.2146 C5            1 RES     
   27005 C5        -656.8981  -426.3012   763.7297 C5            1 RES     
   27006 C5        -655.5769  -426.7930   763.0931 C5            1 RES     
   27007 C5        -654.9905  -428.0579   763.7461 C5            1 RES     
   27008 C5        -655.7656  -429.3621   763.4780 C5            1 RES     
   27009 C5        -655.8334  -429.7900   761.9960 C5            1 RES     
   27010 C5        -654.4574  -430.0219   761.3629 C5            1 RES     
   27011 C5        -657.6338  -424.8902   761.6642 C5            1 RES     
   27012 C5        -656.4103  -424.5446   760.7766 C5            1 RES     
   27013 C5        -656.6741  -424.7531   759.2681 C5            1 RES     
   27014 C5        -657.8304  -423.9045   758.7058 C5            1 RES     
   27015 C5        -658.0696  -424.1198   757.1977 C5            1 RES     
   27016 C5        -656.9138  -423.6099   756.3151 C5            1 RES     
   27017 C5        -657.1519  -423.8266   754.8098 C5            1 RES     
   27018 C5        -658.3487  -423.0507   754.2577 C5            1 RES     
   27019 H6        -657.6796  -413.6549   769.2333 H6            1 RES     
   27020 H6        -656.5689  -413.1525   770.5484 H6            1 RES     
   27021 H6        -657.9153  -414.2959   770.9129 H6            1 RES     
   27022 H6        -655.4780  -414.8568   769.0865 H6            1 RES     
   27023 H6        -655.6847  -415.4301   770.7801 H6            1 RES     
   27024 H6        -656.1946  -417.2356   769.2186 H6            1 RES     
   27025 H6        -657.6586  -416.7704   770.1562 H6            1 RES     
   27026 H6        -657.0553  -415.8939   767.2384 H6            1 RES     
   27027 H6        -658.5342  -415.4987   768.2026 H6            1 RES     
   27028 H6        -657.5949  -418.3231   767.3740 H6            1 RES     
   27029 H6        -658.9977  -417.9360   768.4607 H6            1 RES     
   27030 H6        -660.1304  -416.6935   766.7589 H6            1 RES     
   27031 H6        -658.8433  -416.9741   765.5368 H6            1 RES     
   27032 H6        -660.4669  -419.1802   766.9791 H6            1 RES     
   27033 H6        -660.9366  -418.4557   765.4253 H6            1 RES     
   27034 H6        -658.2459  -419.2175   764.9693 H6            1 RES     
   27035 H6        -659.7115  -419.8636   764.2055 H6            1 RES     
   27036 H6        -658.4548  -420.8474   766.7447 H6            1 RES     
   27037 H6        -660.9346  -421.1899   766.5762 H6            1 RES     
   27038 H6        -660.7011  -422.3327   765.2497 H6            1 RES     
   27039 H6        -659.4355  -423.8337   766.8911 H6            1 RES     
   27040 H6        -659.3944  -422.4617   768.0593 H6            1 RES     
   27041 H6        -661.9837  -423.8901   767.2269 H6            1 RES     
   27042 H6        -661.8462  -422.4065   768.2452 H6            1 RES     
   27043 H6        -660.6394  -425.1430   768.9746 H6            1 RES     
   27044 H6        -660.3497  -423.5959   769.8491 H6            1 RES     
   27045 H6        -662.7429  -423.3135   770.3553 H6            1 RES     
   27046 H6        -662.0449  -424.8213   771.0387 H6            1 RES     
   27047 H6        -663.0617  -426.1628   769.2031 H6            1 RES     
   27048 H6        -663.8054  -424.6588   768.5106 H6            1 RES     
   27049 H6        -664.2932  -425.2364   770.1420 H6            1 RES     
   27050 H6        -657.1559  -421.1318   764.5348 H6            1 RES     
   27051 H6        -658.5654  -422.0815   763.9725 H6            1 RES     
   27052 H6        -656.7189  -422.8667   763.0328 H6            1 RES     
   27053 H6        -655.5333  -423.8846   763.6886 H6            1 RES     
   27054 H6        -658.4532  -424.8263   763.6274 H6            1 RES     
   27055 H6        -656.7832  -426.2328   764.8332 H6            1 RES     
   27056 H6        -657.6691  -427.0735   763.5214 H6            1 RES     
   27057 H6        -655.7082  -426.9955   762.0161 H6            1 RES     
   27058 H6        -654.8212  -426.0000   763.1917 H6            1 RES     
   27059 H6        -653.9506  -428.1921   763.3811 H6            1 RES     
   27060 H6        -654.9234  -427.8983   764.8411 H6            1 RES     
   27061 H6        -656.7977  -429.2674   763.8746 H6            1 RES     
   27062 H6        -655.2631  -430.1767   764.0447 H6            1 RES     
   27063 H6        -656.3915  -429.0423   761.3962 H6            1 RES     
   27064 H6        -656.3972  -430.7464   761.9441 H6            1 RES     
   27065 H6        -653.8881  -430.7837   761.9368 H6            1 RES     
   27066 H6        -654.5849  -430.3869   760.3219 H6            1 RES     
   27067 H6        -653.8715  -429.0811   761.3175 H6            1 RES     
   27068 H6        -658.3890  -424.1033   761.4547 H6            1 RES     
   27069 H6        -658.0779  -425.8625   761.3579 H6            1 RES     
   27070 H6        -655.5347  -425.1643   761.0168 H6            1 RES     
   27071 H6        -656.1064  -423.4925   760.9480 H6            1 RES     
   27072 H6        -655.7327  -424.4934   758.7415 H6            1 RES     
   27073 H6        -656.8890  -425.8286   759.0824 H6            1 RES     
   27074 H6        -657.6447  -422.8261   758.9011 H6            1 RES     
   27075 H6        -658.7673  -424.1990   759.2230 H6            1 RES     
   27076 H6        -658.2514  -425.1993   757.0006 H6            1 RES     
   27077 H6        -658.9905  -423.5590   756.9354 H6            1 RES     
   27078 H6        -655.9843  -424.1575   756.5711 H6            1 RES     
   27079 H6        -656.7470  -422.5276   756.5080 H6            1 RES     
   27080 H6        -656.2450  -423.4811   754.2670 H6            1 RES     
   27081 H6        -657.2863  -424.9101   754.6013 H6            1 RES     
   27082 H6        -659.2985  -423.3988   754.7111 H6            1 RES     
   27083 H6        -658.4178  -423.2149   753.1614 H6            1 RES     
   27084 H6        -658.2238  -421.9634   754.4455 H6            1 RES     
   27085 C0        -660.2482  -414.7209   774.5064 C0            1 RES     
   27086 C0        -660.3081  -414.8132   776.0315 C0            1 RES     
   27087 C0        -660.2256  -416.0978   776.4536 C0            1 RES     
   27088 S1        -660.2242  -416.2500   778.1205 S1            1 RES     
   27089 C0        -660.3335  -414.5657   778.3511 C0            1 RES     
   27090 C0        -660.3152  -413.9216   777.1023 C0            1 RES     
   27091 C0        -659.9889  -416.9486   775.3389 C0            1 RES     
   27092 C0        -659.9294  -416.2034   774.2583 C0            1 RES     
   27093 C0        -659.4248  -416.9509   773.1215 C0            1 RES     
   27094 C0        -659.1652  -418.2653   773.4791 C0            1 RES     
   27095 S1        -659.5398  -418.6680   775.1978 S1            1 RES     
   27096 H2        -660.2522  -412.8583   777.0103 H2            1 RES     
   27097 H2        -659.1398  -416.5303   772.1726 H2            1 RES     
   27098 N3        -661.0224  -411.8635   780.8834 N3            1 RES     
   27099 C0        -660.9245  -412.5479   779.7081 C0            1 RES     
   27100 C0        -660.4060  -413.8575   779.6573 C0            1 RES     
   27101 C0        -660.0061  -414.4301   780.8761 C0            1 RES     
   27102 N3        -659.4832  -415.6787   781.0052 N3            1 RES     
   27103 S1        -659.1835  -415.7752   782.6286 S1            1 RES     
   27104 N3        -659.6812  -414.3124   783.2120 N3            1 RES     
   27105 C0        -660.1097  -413.6896   782.0840 C0            1 RES     
   27106 C0        -660.6251  -412.4002   782.0695 C0            1 RES     
   27107 H4        -661.2851  -412.0771   778.8106 H4            1 RES     
   27108 C5        -657.9272  -407.3470   780.6436 C5            1 RES     
   27109 C5        -657.4859  -408.5897   779.8689 C5            1 RES     
   27110 C5        -658.6547  -409.3995   779.2799 C5            1 RES     
   27111 C5        -659.5037  -408.6250   778.2526 C5            1 RES     
   27112 C5        -660.6106  -409.5277   777.6808 C5            1 RES     
   27113 C5        -661.6187  -408.7569   776.8167 C5            1 RES     
   27114 C5        -662.7749  -409.6538   776.3136 C5            1 RES     
   27115 C5        -662.4344  -410.5437   775.0778 C5            1 RES     
   27116 C5        -662.5281  -412.0875   775.2800 C5            1 RES     
   27117 C5        -663.9551  -412.5438   775.7024 C5            1 RES     
   27118 C5        -663.9445  -413.8834   776.4623 C5            1 RES     
   27119 C5        -665.2234  -414.0638   777.3079 C5            1 RES     
   27120 C5        -665.0814  -415.2513   778.2770 C5            1 RES     
   27121 C5        -666.1876  -415.3009   779.3463 C5            1 RES     
   27122 C5        -667.5800  -415.5570   778.7804 C5            1 RES     
   27123 C5        -661.9922  -412.7670   773.9778 C5            1 RES     
   27124 C0        -661.6011  -414.2833   773.7881 C0            1 RES     
   27125 C5        -661.5280  -414.4919   772.2133 C5            1 RES     
   27126 C5        -662.7654  -415.2221   771.5918 C5            1 RES     
   27127 C5        -662.6624  -416.7823   771.6384 C5            1 RES     
   27128 C5        -661.6825  -417.4171   770.6238 C5            1 RES     
   27129 C5        -661.4638  -418.9291   770.8139 C5            1 RES     
   27130 C5        -662.6573  -419.8246   770.4303 C5            1 RES     
   27131 C5        -663.0703  -419.7630   768.9438 C5            1 RES     
   27132 C5        -661.9525  -420.1765   767.9809 C5            1 RES     
   27133 C5        -663.1701  -414.6815   770.1799 C5            1 RES     
   27134 C5        -662.0384  -414.4498   769.1454 C5            1 RES     
   27135 C5        -662.5653  -414.1249   767.7293 C5            1 RES     
   27136 C5        -663.4410  -412.8596   767.6561 C5            1 RES     
   27137 C5        -663.9471  -412.5478   766.2332 C5            1 RES     
   27138 C5        -662.8234  -412.1485   765.2571 C5            1 RES     
   27139 C5        -663.3286  -411.8391   763.8363 C5            1 RES     
   27140 C5        -664.2648  -410.6318   763.7648 C5            1 RES     
   27141 H6        -658.4225  -406.6151   779.9738 H6            1 RES     
   27142 H6        -657.0353  -406.8531   781.0849 H6            1 RES     
   27143 H6        -658.6197  -407.6261   781.4659 H6            1 RES     
   27144 H6        -656.7883  -408.2896   779.0583 H6            1 RES     
   27145 H6        -656.9339  -409.2511   780.5730 H6            1 RES     
   27146 H6        -658.2278  -410.3009   778.7891 H6            1 RES     
   27147 H6        -659.3076  -409.7384   780.1144 H6            1 RES     
   27148 H6        -658.8630  -408.2532   777.4233 H6            1 RES     
   27149 H6        -659.9763  -407.7583   778.7607 H6            1 RES     
   27150 H6        -660.1536  -410.3613   777.1058 H6            1 RES     
   27151 H6        -661.1814  -409.9310   778.5400 H6            1 RES     
   27152 H6        -662.0641  -407.9789   777.4757 H6            1 RES     
   27153 H6        -661.1280  -408.2396   775.9643 H6            1 RES     
   27154 H6        -663.1725  -410.2214   777.1790 H6            1 RES     
   27155 H6        -663.5881  -408.9726   775.9843 H6            1 RES     
   27156 H6        -661.3949  -410.2920   774.7689 H6            1 RES     
   27157 H6        -663.0836  -410.2468   774.2257 H6            1 RES     
   27158 H6        -661.8818  -412.2424   776.1147 H6            1 RES     
   27159 H6        -664.3324  -411.8089   776.4339 H6            1 RES     
   27160 H6        -664.6798  -412.5307   774.8597 H6            1 RES     
   27161 H6        -663.7672  -414.7388   775.7766 H6            1 RES     
   27162 H6        -663.1098  -413.8383   777.1928 H6            1 RES     
   27163 H6        -666.1159  -414.1720   776.6551 H6            1 RES     
   27164 H6        -665.3525  -413.1528   777.9338 H6            1 RES     
   27165 H6        -665.0327  -416.2066   777.7127 H6            1 RES     
   27166 H6        -664.1264  -415.1300   778.8361 H6            1 RES     
   27167 H6        -666.1941  -414.3471   779.9199 H6            1 RES     
   27168 H6        -665.9477  -416.1214   780.0569 H6            1 RES     
   27169 H6        -667.5988  -416.5243   778.2364 H6            1 RES     
   27170 H6        -667.8904  -414.7380   778.1002 H6            1 RES     
   27171 H6        -668.3084  -415.6061   779.6183 H6            1 RES     
   27172 H6        -661.0744  -412.2208   773.6654 H6            1 RES     
   27173 H6        -662.7833  -412.5280   773.2292 H6            1 RES     
   27174 H6        -661.4532  -413.4898   771.7410 H6            1 RES     
   27175 H6        -660.5930  -414.9455   771.8565 H6            1 RES     
   27176 H6        -663.6379  -414.9671   772.2364 H6            1 RES     
   27177 H6        -662.3779  -417.0751   772.6723 H6            1 RES     
   27178 H6        -663.6672  -417.2104   771.4347 H6            1 RES     
   27179 H6        -662.0232  -417.2500   769.5873 H6            1 RES     
   27180 H6        -660.7005  -416.9336   770.7320 H6            1 RES     
   27181 H6        -660.5894  -419.2373   770.2031 H6            1 RES     
   27182 H6        -661.1946  -419.1225   771.8718 H6            1 RES     
   27183 H6        -663.5330  -419.5639   771.0601 H6            1 RES     
   27184 H6        -662.3794  -420.8763   770.6629 H6            1 RES     
   27185 H6        -663.4268  -418.7472   768.6769 H6            1 RES     
   27186 H6        -663.9209  -420.4634   768.7984 H6            1 RES     
   27187 H6        -661.5937  -421.2009   768.2176 H6            1 RES     
   27188 H6        -662.3385  -420.1697   766.9396 H6            1 RES     
   27189 H6        -661.1000  -419.4682   768.0256 H6            1 RES     
   27190 H6        -663.6427  -413.6886   770.3356 H6            1 RES     
   27191 H6        -663.9499  -415.3556   769.7632 H6            1 RES     
   27192 H6        -661.3937  -415.3328   769.0306 H6            1 RES     
   27193 H6        -661.3818  -413.6240   769.4849 H6            1 RES     
   27194 H6        -661.6747  -413.9982   767.0798 H6            1 RES     
   27195 H6        -663.1487  -414.9931   767.3509 H6            1 RES     
   27196 H6        -662.8826  -411.9834   768.0508 H6            1 RES     
   27197 H6        -664.3403  -413.0166   768.2875 H6            1 RES     
   27198 H6        -664.5026  -413.4256   765.8356 H6            1 RES     
   27199 H6        -664.6568  -411.6995   766.3235 H6            1 RES     
   27200 H6        -662.1023  -412.9852   765.1620 H6            1 RES     
   27201 H6        -662.2816  -411.2626   765.6547 H6            1 RES     
   27202 H6        -662.4440  -411.6195   763.1993 H6            1 RES     
   27203 H6        -663.8427  -412.7306   763.4163 H6            1 RES     
   27204 H6        -665.2028  -410.8156   764.3264 H6            1 RES     
   27205 H6        -664.5375  -410.4417   762.7051 H6            1 RES     
   27206 H6        -663.7611  -409.7282   764.1683 H6            1 RES     
   27207 C0        -660.4331  -408.4101   785.2912 C0            1 RES     
   27208 C0        -660.3058  -408.9240   786.7257 C0            1 RES     
   27209 C0        -660.5960  -410.2447   786.8064 C0            1 RES     
   27210 S1        -660.4115  -410.8720   788.3472 S1            1 RES     
   27211 C0        -659.9221  -409.3694   788.9833 C0            1 RES     
   27212 C0        -659.8663  -408.4204   787.9484 C0            1 RES     
   27213 C0        -660.8138  -410.7626   785.4999 C0            1 RES     
   27214 C0        -660.6626  -409.7820   784.6385 C0            1 RES     
   27215 C0        -660.5993  -410.2745   783.2750 C0            1 RES     
   27216 C0        -660.7432  -411.6534   783.2478 C0            1 RES     
   27217 S1        -660.9854  -412.4191   784.8638 S1            1 RES     
   27218 H2        -659.4675  -407.4394   788.0955 H2            1 RES     
   27219 H2        -660.3269  -409.6926   782.4114 H2            1 RES     
   27220 N3        -659.3128  -407.4470   792.1649 N3            1 RES     
   27221 C0        -659.6134  -407.7561   790.8713 C0            1 RES     
   27222 C0        -659.5715  -409.0840   790.4006 C0            1 RES     
   27223 C0        -659.2176  -410.0764   791.3296 C0            1 RES     
   27224 N3        -659.1262  -411.4024   791.0423 N3            1 RES     
   27225 S1        -658.6510  -412.0499   792.4879 S1            1 RES     
   27226 N3        -658.5480  -410.7437   793.4934 N3            1 RES     
   27227 C0        -658.8992  -409.7240   792.6684 C0            1 RES     
   27228 C0        -658.9541  -408.3963   793.0720 C0            1 RES     
   27229 H4        -659.9194  -406.9618   790.2136 H4            1 RES     
   27230 C5        -654.9601  -404.1193   792.2957 C5            1 RES     
   27231 C5        -655.0696  -405.1525   791.1732 C5            1 RES     
   27232 C5        -656.5112  -405.3916   790.6903 C5            1 RES     
   27233 C5        -657.1901  -404.1444   790.0907 C5            1 RES     
   27234 C5        -658.6025  -404.4909   789.5883 C5            1 RES     
   27235 C5        -659.4082  -403.2501   789.1781 C5            1 RES     
   27236 C5        -660.8549  -403.5974   788.7532 C5            1 RES     
   27237 C5        -661.0059  -404.1448   787.2998 C5            1 RES     
   27238 C5        -661.5774  -405.5886   787.1515 C5            1 RES     
   27239 C5        -663.0008  -405.7280   787.7660 C5            1 RES     
   27240 C5        -663.3290  -407.1777   788.1695 C5            1 RES     
   27241 C5        -664.4633  -407.2303   789.2154 C5            1 RES     
   27242 C5        -664.5891  -408.6392   789.8227 C5            1 RES     
   27243 C5        -665.4875  -408.6863   791.0717 C5            1 RES     
   27244 C5        -666.9507  -408.3633   790.7903 C5            1 RES     
   27245 C5        -661.4856  -405.9793   785.6404 C5            1 RES     
   27246 C0        -661.6507  -407.4195   785.0188 C0            1 RES     
   27247 C5        -661.8725  -407.1699   783.4640 C5            1 RES     
   27248 C5        -663.3562  -407.3074   782.9843 C5            1 RES     
   27249 C5        -663.7715  -408.7760   782.6408 C5            1 RES     
   27250 C5        -663.2103  -409.3348   781.3121 C5            1 RES     
   27251 C5        -663.4814  -410.8338   781.0895 C5            1 RES     
   27252 C5        -664.9458  -411.2044   780.7864 C5            1 RES     
   27253 C5        -665.5190  -410.5970   779.4878 C5            1 RES     
   27254 C5        -664.7485  -411.0075   778.2286 C5            1 RES     
   27255 C5        -663.7523  -406.2864   781.8663 C5            1 RES     
   27256 C5        -662.7648  -406.0902   780.6869 C5            1 RES     
   27257 C5        -663.3469  -405.2306   779.5420 C5            1 RES     
   27258 C5        -663.7542  -403.8066   779.9656 C5            1 RES     
   27259 C5        -664.3223  -402.9629   778.8065 C5            1 RES     
   27260 C5        -663.2784  -402.6283   777.7233 C5            1 RES     
   27261 C5        -663.8462  -401.7877   776.5654 C5            1 RES     
   27262 C5        -664.3289  -400.4002   776.9907 C5            1 RES     
   27263 H6        -655.2732  -403.1152   791.9447 H6            1 RES     
   27264 H6        -653.9024  -404.0479   792.6276 H6            1 RES     
   27265 H6        -655.5834  -404.4204   793.1643 H6            1 RES     
   27266 H6        -654.4329  -404.8372   790.3195 H6            1 RES     
   27267 H6        -654.6754  -406.1183   791.5604 H6            1 RES     
   27268 H6        -656.4809  -406.1919   789.9194 H6            1 RES     
   27269 H6        -657.1158  -405.7620   791.5475 H6            1 RES     
   27270 H6        -656.5853  -403.7421   789.2488 H6            1 RES     
   27271 H6        -657.2721  -403.3681   790.8802 H6            1 RES     
   27272 H6        -658.5335  -405.2130   788.7468 H6            1 RES     
   27273 H6        -659.1483  -404.9504   790.4355 H6            1 RES     
   27274 H6        -659.4731  -402.6066   790.0836 H6            1 RES     
   27275 H6        -658.8983  -402.6658   788.3821 H6            1 RES     
   27276 H6        -661.2929  -404.2576   789.5288 H6            1 RES     
   27277 H6        -661.4336  -402.6498   788.7841 H6            1 RES     
   27278 H6        -659.9960  -404.1167   786.8322 H6            1 RES     
   27279 H6        -661.6325  -403.4416   786.7094 H6            1 RES     
   27280 H6        -660.9089  -406.1562   787.7593 H6            1 RES     
   27281 H6        -663.0062  -405.1643   788.7146 H6            1 RES     
   27282 H6        -663.7906  -405.2657   787.1352 H6            1 RES     
   27283 H6        -663.5436  -407.8087   787.2813 H6            1 RES     
   27284 H6        -662.4329  -407.5849   788.6830 H6            1 RES     
   27285 H6        -665.4233  -406.8873   788.7737 H6            1 RES     
   27286 H6        -664.1936  -406.5446   790.0493 H6            1 RES     
   27287 H6        -664.9398  -409.3609   789.0549 H6            1 RES     
   27288 H6        -663.5796  -408.9605   790.1647 H6            1 RES     
   27289 H6        -665.0966  -407.9807   791.8385 H6            1 RES     
   27290 H6        -665.4364  -409.7117   791.4982 H6            1 RES     
   27291 H6        -667.3656  -409.0829   790.0540 H6            1 RES     
   27292 H6        -667.0638  -407.3285   790.4081 H6            1 RES     
   27293 H6        -667.5291  -408.4486   791.7354 H6            1 RES     
   27294 H6        -660.4920  -405.6468   785.2657 H6            1 RES     
   27295 H6        -662.2492  -405.3193   785.1663 H6            1 RES     
   27296 H6        -661.5363  -406.1369   783.2344 H6            1 RES     
   27297 H6        -661.2009  -407.7429   782.8099 H6            1 RES     
   27298 H6        -663.9951  -407.0177   783.8501 H6            1 RES     
   27299 H6        -663.4583  -409.4262   783.4863 H6            1 RES     
   27300 H6        -664.8794  -408.8251   782.5744 H6            1 RES     
   27301 H6        -663.6179  -408.7830   780.4475 H6            1 RES     
   27302 H6        -662.1187  -409.2007   781.3062 H6            1 RES     
   27303 H6        -662.8537  -411.1827   780.2428 H6            1 RES     
   27304 H6        -663.1462  -411.3959   781.9844 H6            1 RES     
   27305 H6        -665.5878  -410.9042   781.6402 H6            1 RES     
   27306 H6        -665.0030  -412.3118   780.6981 H6            1 RES     
   27307 H6        -665.5519  -409.4902   779.5528 H6            1 RES     
   27308 H6        -666.5654  -410.9554   779.3783 H6            1 RES     
   27309 H6        -664.7207  -412.1138   778.1324 H6            1 RES     
   27310 H6        -665.2523  -410.5880   777.3322 H6            1 RES     
   27311 H6        -663.7120  -410.6129   778.2443 H6            1 RES     
   27312 H6        -663.8418  -405.2916   782.3519 H6            1 RES     
   27313 H6        -664.7619  -406.5613   781.4903 H6            1 RES     
   27314 H6        -662.4725  -407.0449   780.2269 H6            1 RES     
   27315 H6        -661.8305  -405.6194   781.0529 H6            1 RES     
   27316 H6        -662.5652  -405.1752   778.7566 H6            1 RES     
   27317 H6        -664.2324  -405.7494   779.1127 H6            1 RES     
   27318 H6        -662.8871  -403.2783   780.4178 H6            1 RES     
   27319 H6        -664.5567  -403.8820   780.7287 H6            1 RES     
   27320 H6        -665.1876  -403.4926   778.3505 H6            1 RES     
   27321 H6        -664.6901  -402.0145   779.2499 H6            1 RES     
   27322 H6        -662.8967  -403.5680   777.2754 H6            1 RES     
   27323 H6        -662.4232  -402.0874   778.1842 H6            1 RES     
   27324 H6        -663.0374  -401.6493   775.8149 H6            1 RES     
   27325 H6        -664.6806  -402.3350   776.0757 H6            1 RES     
   27326 H6        -665.1861  -400.4687   777.6902 H6            1 RES     
   27327 H6        -664.6687  -399.8396   776.0941 H6            1 RES     
   27328 H6        -663.5025  -399.8341   777.4699 H6            1 RES     
   27329 C0        -656.9989  -405.7464   797.0080 C0            1 RES     
   27330 C0        -656.8496  -406.6716   798.2162 C0            1 RES     
   27331 C0        -657.5474  -407.8207   798.0495 C0            1 RES     
   27332 S1        -657.3674  -408.8968   799.3188 S1            1 RES     
   27333 C0        -656.3230  -407.8472   800.1612 C0            1 RES     
   27334 C0        -656.1011  -406.6927   799.3914 C0            1 RES     
   27335 C0        -658.1057  -407.8505   796.7418 C0            1 RES     
   27336 C0        -657.7599  -406.7447   796.1219 C0            1 RES     
   27337 C0        -658.0555  -406.8136   794.7029 C0            1 RES     
   27338 C0        -658.6512  -408.0254   794.3875 C0            1 RES     
   27339 S1        -658.9046  -409.1300   795.7918 S1            1 RES     
   27340 H2        -655.3828  -405.9513   799.6698 H2            1 RES     
   27341 H2        -657.7293  -406.1056   793.9606 H2            1 RES     
   27342 N3        -654.6705  -407.1926   803.4824 N3            1 RES     
   27343 C0        -655.2349  -407.0121   802.2543 C0            1 RES     
   27344 C0        -655.7025  -408.0997   801.4894 C0            1 RES     
   27345 C0        -655.5715  -409.3781   802.0567 C0            1 RES     
   27346 N3        -655.9666  -410.5316   801.4547 N3            1 RES     
   27347 S1        -655.5356  -411.6801   802.5638 S1            1 RES     
   27348 N3        -654.8650  -410.8095   803.7968 N3            1 RES     
   27349 C0        -654.9698  -409.5373   803.3337 C0            1 RES     
   27350 C0        -654.5237  -408.4266   804.0378 C0            1 RES     
   27351 H4        -655.3489  -406.0076   801.8866 H4            1 RES     
   27352 C5        -649.4874  -405.4135   803.4027 C5            1 RES     
   27353 C5        -650.0897  -405.9985   802.1244 C5            1 RES     
   27354 C5        -651.5816  -405.6704   801.9365 C5            1 RES     
   27355 C5        -651.8851  -404.1641   801.8135 C5            1 RES     
   27356 C5        -653.3880  -403.9366   801.5756 C5            1 RES     
   27357 C5        -653.7853  -402.4560   801.6588 C5            1 RES     
   27358 C5        -655.3097  -402.2423   801.5018 C5            1 RES     
   27359 C5        -655.8360  -402.2749   800.0331 C5            1 RES     
   27360 C5        -656.8691  -403.3903   799.6844 C5            1 RES     
   27361 C5        -658.1570  -403.2973   800.5537 C5            1 RES     
   27362 C5        -658.8877  -404.6480   800.6708 C5            1 RES     
   27363 C5        -659.8167  -404.6832   801.9032 C5            1 RES     
   27364 C5        -660.3165  -406.1132   802.1770 C5            1 RES     
   27365 C5        -660.9951  -406.2691   803.5498 C5            1 RES     
   27366 C5        -662.2923  -405.4801   803.6887 C5            1 RES     
   27367 C5        -657.1250  -403.3310   798.1432 C5            1 RES     
   27368 C0        -657.8441  -404.4189   797.2559 C0            1 RES     
   27369 C5        -658.1862  -403.6734   795.8936 C5            1 RES     
   27370 C5        -659.6832  -403.2416   795.7420 C5            1 RES     
   27371 C5        -660.6062  -404.3665   795.1676 C5            1 RES     
   27372 C5        -660.4544  -404.6462   793.6538 C5            1 RES     
   27373 C5        -661.2361  -405.8748   793.1543 C5            1 RES     
   27374 C5        -662.7676  -405.7130   793.1109 C5            1 RES     
   27375 C5        -663.2828  -404.6167   792.1536 C5            1 RES     
   27376 C5        -662.8768  -404.8400   790.6931 C5            1 RES     
   27377 C5        -659.8705  -401.8699   795.0121 C5            1 RES     
   27378 C5        -659.0496  -401.6231   793.7199 C5            1 RES     
   27379 C5        -659.4679  -400.3388   792.9688 C5            1 RES     
   27380 C5        -659.3158  -399.0467   793.7938 C5            1 RES     
   27381 C5        -659.7282  -397.7767   793.0224 C5            1 RES     
   27382 C5        -658.7953  -397.4474   791.8409 C5            1 RES     
   27383 C5        -659.2082  -396.1807   791.0699 C5            1 RES     
   27384 C5        -659.1383  -394.9013   791.9050 C5            1 RES     
   27385 H6        -649.4953  -404.3051   803.3757 H6            1 RES     
   27386 H6        -648.4304  -405.7428   803.4951 H6            1 RES     
   27387 H6        -650.0469  -405.7676   804.2945 H6            1 RES     
   27388 H6        -649.5109  -405.6396   801.2470 H6            1 RES     
   27389 H6        -649.9883  -407.1053   802.1763 H6            1 RES     
   27390 H6        -651.9271  -406.1847   801.0135 H6            1 RES     
   27391 H6        -652.1483  -406.0897   802.7970 H6            1 RES     
   27392 H6        -651.3054  -403.7202   800.9749 H6            1 RES     
   27393 H6        -651.5932  -403.6626   802.7601 H6            1 RES     
   27394 H6        -653.6813  -404.3697   800.5954 H6            1 RES     
   27395 H6        -653.9309  -404.4510   802.3926 H6            1 RES     
   27396 H6        -653.5053  -402.1146   802.6802 H6            1 RES     
   27397 H6        -653.2274  -401.8325   800.9275 H6            1 RES     
   27398 H6        -655.8287  -402.9495   802.1798 H6            1 RES     
   27399 H6        -655.5307  -401.2225   801.8826 H6            1 RES     
   27400 H6        -654.9502  -402.3963   799.3699 H6            1 RES     
   27401 H6        -656.2699  -401.2832   799.7800 H6            1 RES     
   27402 H6        -656.3486  -404.2749   799.9762 H6            1 RES     
   27403 H6        -657.8420  -403.0581   801.5838 H6            1 RES     
   27404 H6        -658.8288  -402.4680   800.2430 H6            1 RES     
   27405 H6        -659.4219  -404.9044   799.7316 H6            1 RES     
   27406 H6        -658.1150  -405.4224   800.8595 H6            1 RES     
   27407 H6        -660.6603  -403.9704   801.7818 H6            1 RES     
   27408 H6        -659.2206  -404.3763   802.7914 H6            1 RES     
   27409 H6        -660.9908  -406.4494   801.3612 H6            1 RES     
   27410 H6        -659.4335  -406.7908   802.1981 H6            1 RES     
   27411 H6        -660.2887  -405.9585   804.3519 H6            1 RES     
   27412 H6        -661.2279  -407.3454   803.7023 H6            1 RES     
   27413 H6        -663.0214  -405.8057   802.9176 H6            1 RES     
   27414 H6        -662.1079  -404.3906   803.5944 H6            1 RES     
   27415 H6        -662.7276  -405.6720   804.6931 H6            1 RES     
   27416 H6        -656.1403  -403.1968   797.6425 H6            1 RES     
   27417 H6        -657.6847  -402.3744   798.0208 H6            1 RES     
   27418 H6        -657.5620  -402.7567   795.8419 H6            1 RES     
   27419 H6        -657.8416  -404.1946   794.9897 H6            1 RES     
   27420 H6        -660.0617  -403.0504   796.7725 H6            1 RES     
   27421 H6        -660.4112  -405.2962   795.7449 H6            1 RES     
   27422 H6        -661.6653  -404.0804   795.3429 H6            1 RES     
   27423 H6        -660.7728  -403.7742   793.0567 H6            1 RES     
   27424 H6        -659.3924  -404.8288   793.4337 H6            1 RES     
   27425 H6        -660.8850  -406.1224   792.1305 H6            1 RES     
   27426 H6        -660.9845  -406.7446   793.7940 H6            1 RES     
   27427 H6        -663.1471  -405.5080   794.1333 H6            1 RES     
   27428 H6        -663.2008  -406.6832   792.7817 H6            1 RES     
   27429 H6        -662.9370  -403.6149   792.4810 H6            1 RES     
   27430 H6        -664.3932  -404.6180   792.2020 H6            1 RES     
   27431 H6        -663.2316  -405.8308   790.3374 H6            1 RES     
   27432 H6        -663.3332  -404.0526   790.0566 H6            1 RES     
   27433 H6        -661.7767  -404.7755   790.5665 H6            1 RES     
   27434 H6        -659.5558  -401.0776   795.7239 H6            1 RES     
   27435 H6        -660.9563  -401.7271   794.8197 H6            1 RES     
   27436 H6        -659.1583  -402.4432   792.9960 H6            1 RES     
   27437 H6        -657.9705  -401.5626   793.9656 H6            1 RES     
   27438 H6        -658.8304  -400.2781   792.0628 H6            1 RES     
   27439 H6        -660.5262  -400.4382   792.6411 H6            1 RES     
   27440 H6        -658.2682  -398.9400   794.1496 H6            1 RES     
   27441 H6        -659.9824  -399.1133   794.6789 H6            1 RES     
   27442 H6        -660.7751  -397.8841   792.6624 H6            1 RES     
   27443 H6        -659.6944  -396.9362   793.7462 H6            1 RES     
   27444 H6        -658.8139  -398.2825   791.1118 H6            1 RES     
   27445 H6        -657.7534  -397.3284   792.2106 H6            1 RES     
   27446 H6        -658.5131  -396.0620   790.2101 H6            1 RES     
   27447 H6        -660.2369  -396.3030   790.6668 H6            1 RES     
   27448 H6        -659.8627  -394.9276   792.7437 H6            1 RES     
   27449 H6        -659.3950  -394.0310   791.2644 H6            1 RES     
   27450 H6        -658.1124  -394.7565   792.3043 H6            1 RES     
   27451 C0        -651.2685  -407.7063   807.9394 C0            1 RES     
   27452 C0        -651.2669  -408.9474   808.8325 C0            1 RES     
   27453 C0        -652.3226  -409.7526   808.5636 C0            1 RES     
   27454 S1        -652.3339  -411.1581   809.4723 S1            1 RES     
   27455 C0        -650.8932  -410.7391   810.2790 C0            1 RES     
   27456 C0        -650.4109  -409.5210   809.7705 C0            1 RES     
   27457 C0        -653.0366  -409.2402   807.4454 C0            1 RES     
   27458 C0        -652.4340  -408.1454   807.0394 C0            1 RES     
   27459 C0        -652.9315  -407.7100   805.7477 C0            1 RES     
   27460 C0        -653.9337  -408.5577   805.3006 C0            1 RES     
   27461 S1        -654.3398  -409.9069   806.4280 S1            1 RES     
   27462 H2        -649.4558  -409.1269   810.0452 H2            1 RES     
   27463 H2        -652.4964  -406.9374   805.1375 H2            1 RES     
   27464 N3        -648.6687  -411.5774   813.2011 N3            1 RES     
   27465 C0        -649.3075  -410.8943   812.2088 C0            1 RES     
   27466 C0        -650.2119  -411.5330   811.3366 C0            1 RES     
   27467 C0        -650.4345  -412.9042   811.5451 C0            1 RES     
   27468 N3        -651.2703  -413.6712   810.7953 N3            1 RES     
   27469 S1        -651.0939  -415.1666   811.4790 S1            1 RES     
   27470 N3        -650.0065  -414.9203   812.6976 N3            1 RES     
   27471 C0        -649.7470  -413.5926   812.5803 C0            1 RES     
   27472 C0        -648.8635  -412.9089   813.4053 C0            1 RES     
   27473 H4        -649.1320  -409.8366   812.1212 H4            1 RES     
   27474 C5        -643.2544  -411.3855   812.3737 C5            1 RES     
   27475 C5        -644.1897  -411.3767   811.1636 C5            1 RES     
   27476 C5        -645.4988  -410.6023   811.3985 C5            1 RES     
   27477 C5        -645.2992  -409.1044   811.7024 C5            1 RES     
   27478 C5        -646.6591  -408.4042   811.8690 C5            1 RES     
   27479 C5        -646.5266  -406.9636   812.3831 C5            1 RES     
   27480 C5        -647.8997  -406.2937   812.6278 C5            1 RES     
   27481 C5        -648.6074  -405.7457   811.3496 C5            1 RES     
   27482 C5        -649.9902  -406.3726   810.9920 C5            1 RES     
   27483 C5        -651.0389  -406.1798   812.1261 C5            1 RES     
   27484 C5        -652.1524  -407.2431   812.0859 C5            1 RES     
   27485 C5        -652.8578  -407.3747   813.4528 C5            1 RES     
   27486 C5        -653.7603  -408.6212   813.4903 C5            1 RES     
   27487 C5        -654.2526  -408.9746   814.9053 C5            1 RES     
   27488 C5        -655.1813  -407.9294   815.5131 C5            1 RES     
   27489 C5        -650.4253  -405.7954   809.6056 C5            1 RES     
   27490 C0        -651.5817  -406.3279   808.6743 C0            1 RES     
   27491 C5        -651.8443  -405.1517   807.6368 C5            1 RES     
   27492 C5        -653.1187  -404.2917   807.9315 C5            1 RES     
   27493 C5        -654.4336  -404.8922   807.3334 C5            1 RES     
   27494 C5        -654.5971  -404.7475   805.8020 C5            1 RES     
   27495 C5        -655.8041  -405.5044   805.2186 C5            1 RES     
   27496 C5        -657.1851  -404.9132   805.5604 C5            1 RES     
   27497 C5        -657.4361  -403.4862   805.0270 C5            1 RES     
   27498 C5        -657.3363  -403.3771   803.5019 C5            1 RES     
   27499 C5        -652.9405  -402.7718   807.6036 C5            1 RES     
   27500 C5        -652.2740  -402.3989   806.2541 C5            1 RES     
   27501 C5        -652.3432  -400.8877   805.9378 C5            1 RES     
   27502 C5        -651.6568  -399.9910   806.9857 C5            1 RES     
   27503 C5        -651.7282  -398.4886   806.6456 C5            1 RES     
   27504 C5        -650.9143  -398.1042   805.3947 C5            1 RES     
   27505 C5        -650.9872  -396.6048   805.0543 C5            1 RES     
   27506 C5        -650.3803  -395.6995   806.1272 C5            1 RES     
   27507 H6        -642.8977  -410.3623   812.6088 H6            1 RES     
   27508 H6        -642.3648  -412.0107   812.1460 H6            1 RES     
   27509 H6        -643.7689  -411.8127   813.2605 H6            1 RES     
   27510 H6        -643.6537  -410.9547   810.2871 H6            1 RES     
   27511 H6        -644.4552  -412.4320   810.9313 H6            1 RES     
   27512 H6        -646.1212  -410.7052   810.4832 H6            1 RES     
   27513 H6        -646.0460  -411.0780   812.2422 H6            1 RES     
   27514 H6        -644.7287  -408.6162   810.8823 H6            1 RES     
   27515 H6        -644.7278  -409.0051   812.6491 H6            1 RES     
   27516 H6        -647.2138  -408.4308   810.9068 H6            1 RES     
   27517 H6        -647.2217  -408.9608   812.6440 H6            1 RES     
   27518 H6        -646.0089  -407.0292   813.3659 H6            1 RES     
   27519 H6        -645.9017  -406.3366   811.7113 H6            1 RES     
   27520 H6        -648.5235  -406.9925   813.2209 H6            1 RES     
   27521 H6        -647.7140  -405.4110   813.2760 H6            1 RES     
   27522 H6        -647.9144  -405.9117   810.4943 H6            1 RES     
   27523 H6        -648.7185  -404.6433   811.4395 H6            1 RES     
   27524 H6        -649.7574  -407.4128   810.9441 H6            1 RES     
   27525 H6        -650.5212  -406.3513   813.0853 H6            1 RES     
   27526 H6        -651.4339  -405.1421   812.1771 H6            1 RES     
   27527 H6        -652.8675  -407.0523   811.2580 H6            1 RES     
   27528 H6        -651.6621  -408.2234   811.9095 H6            1 RES     
   27529 H6        -653.4253  -406.4505   813.6944 H6            1 RES     
   27530 H6        -652.0754  -407.5218   814.2302 H6            1 RES     
   27531 H6        -654.6153  -408.5001   812.7920 H6            1 RES     
   27532 H6        -653.1585  -409.4949   813.1531 H6            1 RES     
   27533 H6        -653.3781  -409.1241   815.5774 H6            1 RES     
   27534 H6        -654.8056  -409.9375   814.8506 H6            1 RES     
   27535 H6        -656.0776  -407.7963   814.8720 H6            1 RES     
   27536 H6        -654.6610  -406.9579   815.6368 H6            1 RES     
   27537 H6        -655.5102  -408.2762   816.5164 H6            1 RES     
   27538 H6        -649.5324  -405.8032   808.9416 H6            1 RES     
   27539 H6        -650.6471  -404.7279   809.8394 H6            1 RES     
   27540 H6        -650.9650  -404.4743   807.6614 H6            1 RES     
   27541 H6        -651.8226  -405.4605   806.5825 H6            1 RES     
   27542 H6        -653.2638  -404.3122   809.0362 H6            1 RES     
   27543 H6        -654.4793  -405.9656   807.6184 H6            1 RES     
   27544 H6        -655.3020  -404.3842   807.8046 H6            1 RES     
   27545 H6        -654.6884  -403.6863   805.5126 H6            1 RES     
   27546 H6        -653.6979  -405.1486   805.3119 H6            1 RES     
   27547 H6        -655.7023  -405.5298   804.1134 H6            1 RES     
   27548 H6        -655.7683  -406.5574   805.5639 H6            1 RES     
   27549 H6        -657.3278  -404.9183   806.6608 H6            1 RES     
   27550 H6        -657.9574  -405.5818   805.1200 H6            1 RES     
   27551 H6        -656.7351  -402.7637   805.4927 H6            1 RES     
   27552 H6        -658.4655  -403.1893   805.3226 H6            1 RES     
   27553 H6        -658.0459  -404.0788   803.0139 H6            1 RES     
   27554 H6        -657.5899  -402.3429   803.1866 H6            1 RES     
   27555 H6        -656.3064  -403.5904   803.1494 H6            1 RES     
   27556 H6        -652.2842  -402.3445   808.3911 H6            1 RES     
   27557 H6        -653.9330  -402.2797   807.6996 H6            1 RES     
   27558 H6        -652.7491  -402.9061   805.4023 H6            1 RES     
   27559 H6        -651.2129  -402.7190   806.2576 H6            1 RES     
   27560 H6        -651.8554  -400.7464   804.9514 H6            1 RES     
   27561 H6        -653.4094  -400.5851   805.8430 H6            1 RES     
   27562 H6        -650.5943  -400.2922   807.1112 H6            1 RES     
   27563 H6        -652.1767  -400.1234   807.9575 H6            1 RES     
   27564 H6        -652.7909  -398.1870   806.5158 H6            1 RES     
   27565 H6        -651.3162  -397.9418   807.5189 H6            1 RES     
   27566 H6        -651.3110  -398.6489   804.5142 H6            1 RES     
   27567 H6        -649.8510  -398.3967   805.5375 H6            1 RES     
   27568 H6        -650.4199  -396.4402   804.1122 H6            1 RES     
   27569 H6        -652.0439  -396.3094   804.8762 H6            1 RES     
   27570 H6        -650.9471  -395.7653   807.0777 H6            1 RES     
   27571 H6        -650.4207  -394.6445   805.7824 H6            1 RES     
   27572 H6        -649.3192  -395.9725   806.3077 H6            1 RES     
   27573 C0        -645.0409  -414.3077   816.5306 C0            1 RES     
   27574 C0        -645.3260  -415.7038   817.0852 C0            1 RES     
   27575 C0        -646.6158  -416.0641   816.8806 C0            1 RES     
   27576 S1        -646.9654  -417.6115   817.4145 S1            1 RES     
   27577 C0        -645.3693  -417.8697   817.9508 C0            1 RES     
   27578 C0        -644.5864  -416.7433   817.6456 C0            1 RES     
   27579 C0        -647.2685  -415.0678   816.1035 C0            1 RES     
   27580 C0        -646.3999  -414.1179   815.8394 C0            1 RES     
   27581 C0        -646.9007  -413.2021   814.8313 C0            1 RES     
   27582 C0        -648.1796  -413.5642   814.4362 C0            1 RES     
   27583 S1        -648.8481  -415.0130   815.2789 S1            1 RES     
   27584 H2        -643.5261  -416.7320   817.7824 H2            1 RES     
   27585 H2        -646.3239  -412.4398   814.3365 H2            1 RES     
   27586 N3        -643.1627  -420.1164   820.0179 N3            1 RES     
   27587 C0        -643.6710  -419.0221   819.3827 C0            1 RES     
   27588 C0        -644.8490  -419.0963   818.6123 C0            1 RES     
   27589 C0        -645.4825  -420.3480   818.5394 C0            1 RES     
   27590 N3        -646.6218  -420.5945   817.8393 N3            1 RES     
   27591 S1        -646.8577  -422.2109   818.0971 S1            1 RES     
   27592 N3        -645.5908  -422.6482   819.0622 N3            1 RES     
   27593 C0        -644.9245  -421.4734   819.2029 C0            1 RES     
   27594 C0        -643.7578  -421.3384   819.9439 C0            1 RES     
   27595 H4        -643.1686  -418.0792   819.5074 H4            1 RES     
   27596 C5        -638.1644  -421.2215   818.0604 C5            1 RES     
   27597 C5        -639.2037  -420.5963   817.1285 C5            1 RES     
   27598 C5        -640.1348  -419.5892   817.8265 C5            1 RES     
   27599 C5        -639.4089  -418.3652   818.4188 C5            1 RES     
   27600 C5        -640.4216  -417.3917   819.0463 C5            1 RES     
   27601 C5        -639.7479  -416.2627   819.8391 C5            1 RES     
   27602 C5        -640.7721  -415.3359   820.5364 C5            1 RES     
   27603 C5        -641.4296  -414.2620   819.6148 C5            1 RES     
   27604 C5        -642.9778  -414.3415   819.4416 C5            1 RES     
   27605 C5        -643.7330  -414.2023   820.7956 C5            1 RES     
   27606 C5        -645.1302  -414.8492   820.7601 C5            1 RES     
   27607 C5        -645.6403  -415.1711   822.1811 C5            1 RES     
   27608 C5        -646.8907  -416.0676   822.1288 C5            1 RES     
   27609 C5        -647.2688  -416.6662   823.4956 C5            1 RES     
   27610 C5        -647.7030  -415.6276   824.5239 C5            1 RES     
   27611 C5        -643.3865  -413.2860   818.3630 C5            1 RES     
   27612 C0        -644.7724  -413.1749   817.6182 C0            1 RES     
   27613 C5        -644.7725  -411.7225   816.9708 C5            1 RES     
   27614 C5        -645.6346  -410.6643   817.7374 C5            1 RES     
   27615 C5        -647.1443  -410.6684   817.3276 C5            1 RES     
   27616 C5        -647.4635  -410.0421   815.9498 C5            1 RES     
   27617 C5        -648.9224  -410.2238   815.4931 C5            1 RES     
   27618 C5        -649.9666  -409.3951   816.2655 C5            1 RES     
   27619 C5        -649.8018  -407.8642   816.1507 C5            1 RES     
   27620 C5        -649.8864  -407.3463   814.7112 C5            1 RES     
   27621 C5        -645.0099  -409.2294   817.7422 C5            1 RES     
   27622 C5        -644.4536  -408.6812   816.4026 C5            1 RES     
   27623 C5        -644.0609  -407.1880   816.4720 C5            1 RES     
   27624 C5        -642.9761  -406.8681   817.5179 C5            1 RES     
   27625 C5        -642.5917  -405.3754   817.5632 C5            1 RES     
   27626 C5        -641.8803  -404.8869   816.2864 C5            1 RES     
   27627 C5        -641.4983  -403.3964   816.3310 C5            1 RES     
   27628 C5        -640.4813  -403.0536   817.4207 C5            1 RES     
   27629 H6        -637.4591  -420.4554   818.4415 H6            1 RES     
   27630 H6        -637.5739  -421.9764   817.4987 H6            1 RES     
   27631 H6        -638.6617  -421.7267   818.9154 H6            1 RES     
   27632 H6        -638.6864  -420.1048   816.2773 H6            1 RES     
   27633 H6        -639.8341  -421.4181   816.7222 H6            1 RES     
   27634 H6        -640.8779  -419.2403   817.0770 H6            1 RES     
   27635 H6        -640.6849  -420.1170   818.6367 H6            1 RES     
   27636 H6        -638.8297  -417.8394   817.6286 H6            1 RES     
   27637 H6        -638.7101  -418.7122   819.2088 H6            1 RES     
   27638 H6        -641.0829  -416.9783   818.2549 H6            1 RES     
   27639 H6        -641.0226  -417.9689   819.7761 H6            1 RES     
   27640 H6        -639.1490  -416.7558   820.6368 H6            1 RES     
   27641 H6        -639.0511  -415.6688   819.2094 H6            1 RES     
   27642 H6        -641.5028  -415.9728   821.0747 H6            1 RES     
   27643 H6        -640.2150  -414.7711   821.3138 H6            1 RES     
   27644 H6        -640.9581  -414.3584   818.6109 H6            1 RES     
   27645 H6        -641.1548  -413.2496   819.9823 H6            1 RES     
   27646 H6        -643.1125  -415.3437   819.1009 H6            1 RES     
   27647 H6        -643.1725  -414.7853   821.5463 H6            1 RES     
   27648 H6        -643.7499  -413.1578   821.1752 H6            1 RES     
   27649 H6        -645.8501  -414.2315   820.1826 H6            1 RES     
   27650 H6        -645.0230  -415.8314   820.2538 H6            1 RES     
   27651 H6        -645.8291  -414.2376   822.7534 H6            1 RES     
   27652 H6        -644.8503  -415.7531   822.7060 H6            1 RES     
   27653 H6        -647.7460  -415.5122   821.6892 H6            1 RES     
   27654 H6        -646.6666  -416.9366   821.4702 H6            1 RES     
   27655 H6        -646.4084  -417.2454   823.8994 H6            1 RES     
   27656 H6        -648.1119  -417.3747   823.3436 H6            1 RES     
   27657 H6        -648.5848  -415.0664   824.1504 H6            1 RES     
   27658 H6        -646.8778  -414.9223   824.7506 H6            1 RES     
   27659 H6        -647.9843  -416.1458   825.4660 H6            1 RES     
   27660 H6        -642.6492  -413.3498   817.5320 H6            1 RES     
   27661 H6        -643.2063  -412.3164   818.8834 H6            1 RES     
   27662 H6        -643.7240  -411.3578   816.9542 H6            1 RES     
   27663 H6        -645.0025  -411.7023   815.8965 H6            1 RES     
   27664 H6        -645.6219  -410.9655   818.8102 H6            1 RES     
   27665 H6        -647.5033  -411.7201   817.3569 H6            1 RES     
   27666 H6        -647.7198  -410.0979   818.0877 H6            1 RES     
   27667 H6        -647.2370  -408.9618   815.9444 H6            1 RES     
   27668 H6        -646.8266  -410.5181   815.1899 H6            1 RES     
   27669 H6        -648.9909  -409.9521   814.4187 H6            1 RES     
   27670 H6        -649.1902  -411.2972   815.5657 H6            1 RES     
   27671 H6        -649.9471  -409.6816   817.3373 H6            1 RES     
   27672 H6        -650.9707  -409.6601   815.8667 H6            1 RES     
   27673 H6        -648.8428  -407.5373   816.6021 H6            1 RES     
   27674 H6        -650.6221  -407.3899   816.7316 H6            1 RES     
   27675 H6        -650.8496  -407.6453   814.2456 H6            1 RES     
   27676 H6        -649.8239  -406.2375   814.7116 H6            1 RES     
   27677 H6        -649.0459  -407.7277   814.0960 H6            1 RES     
   27678 H6        -644.1454  -409.2539   818.4390 H6            1 RES     
   27679 H6        -645.7589  -408.5287   818.1714 H6            1 RES     
   27680 H6        -645.1845  -408.7618   815.5854 H6            1 RES     
   27681 H6        -643.5695  -409.2731   816.0921 H6            1 RES     
   27682 H6        -643.6973  -406.9073   815.4621 H6            1 RES     
   27683 H6        -644.9684  -406.5839   816.6931 H6            1 RES     
   27684 H6        -642.0673  -407.4789   817.3269 H6            1 RES     
   27685 H6        -643.3687  -407.1273   818.5233 H6            1 RES     
   27686 H6        -643.5011  -404.7629   817.7502 H6            1 RES     
   27687 H6        -641.9035  -405.2470   818.4241 H6            1 RES     
   27688 H6        -642.5546  -405.0155   815.4158 H6            1 RES     
   27689 H6        -640.9655  -405.4949   816.1137 H6            1 RES     
   27690 H6        -641.0466  -403.1298   815.3505 H6            1 RES     
   27691 H6        -642.4110  -402.7771   816.4696 H6            1 RES     
   27692 H6        -640.8986  -403.2325   818.4320 H6            1 RES     
   27693 H6        -640.2172  -401.9771   817.3500 H6            1 RES     
   27694 H6        -639.5568  -403.6543   817.2885 H6            1 RES     
   27695 C0        -640.2179  -424.6063   821.7124 C0            1 RES     
   27696 C0        -640.8695  -425.9643   821.9751 C0            1 RES     
   27697 C0        -642.2210  -425.8711   821.9879 C0            1 RES     
   27698 S1        -642.9858  -427.3432   822.2103 S1            1 RES     
   27699 C0        -641.5074  -428.1850   822.2978 C0            1 RES     
   27700 C0        -640.4460  -427.2863   822.0958 C0            1 RES     
   27701 C0        -642.6081  -424.5496   821.6326 C0            1 RES     
   27702 C0        -641.5196  -423.8484   821.4090 C0            1 RES     
   27703 C0        -641.8241  -422.5756   820.7822 C0            1 RES     
   27704 C0        -643.1927  -422.4313   820.6119 C0            1 RES     
   27705 S1        -644.1790  -423.8141   821.2213 S1            1 RES     
   27706 H2        -639.4340  -427.6142   821.9890 H2            1 RES     
   27707 H2        -641.1024  -421.8962   820.3622 H2            1 RES     
   27708 N3        -639.9049  -431.4638   823.2313 N3            1 RES     
   27709 C0        -640.1049  -430.1348   823.0005 C0            1 RES     
   27710 C0        -641.3364  -429.6459   822.5198 C0            1 RES     
   27711 C0        -642.3530  -430.5904   822.3013 C0            1 RES     
   27712 N3        -643.5958  -430.2905   821.8381 N3            1 RES     
   27713 S1        -644.3162  -431.7768   821.7575 S1            1 RES     
   27714 N3        -643.1441  -432.8152   822.2829 N3            1 RES     
   27715 C0        -642.1129  -431.9700   822.5403 C0            1 RES     
   27716 C0        -640.8759  -432.3916   823.0099 C0            1 RES     
   27717 H4        -639.3057  -429.4508   823.2255 H4            1 RES     
   27718 C5        -635.8835  -433.3064   819.9956 C5            1 RES     
   27719 C5        -636.7761  -432.1701   819.4943 C5            1 RES     
   27720 C5        -637.2126  -431.1920   820.5995 C5            1 RES     
   27721 C5        -636.0461  -430.4508   821.2821 C5            1 RES     
   27722 C5        -636.5798  -429.4599   822.3311 C5            1 RES     
   27723 C5        -635.4654  -428.8496   823.1929 C5            1 RES     
   27724 C5        -636.0155  -427.9186   824.2996 C5            1 RES     
   27725 C5        -636.4016  -426.4825   823.8268 C5            1 RES     
   27726 C5        -637.8965  -426.0691   823.9932 C5            1 RES     
   27727 C5        -638.3649  -426.1257   825.4765 C5            1 RES     
   27728 C5        -639.8880  -426.3137   825.6066 C5            1 RES     
   27729 C5        -640.2714  -426.8803   826.9905 C5            1 RES     
   27730 C5        -641.7426  -427.3328   827.0133 C5            1 RES     
   27731 C5        -642.1025  -428.1735   828.2515 C5            1 RES     
   27732 C5        -642.0186  -427.4031   829.5646 C5            1 RES     
   27733 C5        -638.0786  -424.6739   823.3116 C5            1 RES     
   27734 C0        -639.4390  -423.9647   822.9452 C0            1 RES     
   27735 C5        -639.0479  -422.4478   822.6720 C5            1 RES     
   27736 C5        -639.3933  -421.4627   823.8385 C5            1 RES     
   27737 C5        -640.8604  -420.9219   823.7900 C5            1 RES     
   27738 C5        -641.1435  -419.8565   822.7049 C5            1 RES     
   27739 C5        -642.6288  -419.4787   822.5591 C5            1 RES     
   27740 C5        -643.2195  -418.6538   823.7185 C5            1 RES     
   27741 C5        -642.5738  -417.2673   823.9304 C5            1 RES     
   27742 C5        -642.6826  -416.3489   822.7087 C5            1 RES     
   27743 C5        -638.3337  -420.3282   824.0374 C5            1 RES     
   27744 C5        -637.8206  -419.5916   822.7731 C5            1 RES     
   27745 C5        -636.9490  -418.3576   823.0990 C5            1 RES     
   27746 C5        -635.6842  -418.6764   823.9186 C5            1 RES     
   27747 C5        -634.8238  -417.4335   824.2235 C5            1 RES     
   27748 C5        -634.1771  -416.8134   822.9696 C5            1 RES     
   27749 C5        -633.3198  -415.5716   823.2739 C5            1 RES     
   27750 C5        -632.1046  -415.8632   824.1555 C5            1 RES     
   27751 H6        -634.9179  -432.9161   820.3761 H6            1 RES     
   27752 H6        -635.6620  -433.9979   819.1550 H6            1 RES     
   27753 H6        -636.3952  -433.8785   820.7984 H6            1 RES     
   27754 H6        -636.2498  -431.6173   818.6874 H6            1 RES     
   27755 H6        -637.6939  -432.6250   819.0600 H6            1 RES     
   27756 H6        -637.8951  -430.4449   820.1394 H6            1 RES     
   27757 H6        -637.7873  -431.7568   821.3665 H6            1 RES     
   27758 H6        -635.4421  -429.9020   820.5269 H6            1 RES     
   27759 H6        -635.3987  -431.1956   821.7909 H6            1 RES     
   27760 H6        -637.1704  -428.6646   821.8280 H6            1 RES     
   27761 H6        -637.2296  -430.0320   823.0219 H6            1 RES     
   27762 H6        -634.9585  -429.7021   823.6974 H6            1 RES     
   27763 H6        -634.7066  -428.3184   822.5790 H6            1 RES     
   27764 H6        -636.8330  -428.4527   824.8247 H6            1 RES     
   27765 H6        -635.1993  -427.7865   825.0415 H6            1 RES     
   27766 H6        -636.1345  -426.4094   822.7485 H6            1 RES     
   27767 H6        -635.7577  -425.7421   824.3490 H6            1 RES     
   27768 H6        -638.4025  -426.8475   823.4672 H6            1 RES     
   27769 H6        -637.9303  -427.0359   825.9242 H6            1 RES     
   27770 H6        -637.9808  -425.2775   826.0834 H6            1 RES     
   27771 H6        -640.4355  -425.3778   825.3668 H6            1 RES     
   27772 H6        -640.1849  -427.0934   824.8742 H6            1 RES     
   27773 H6        -640.0574  -426.1416   827.7923 H6            1 RES     
   27774 H6        -639.6540  -427.7880   827.1731 H6            1 RES     
   27775 H6        -642.4178  -426.4560   826.9199 H6            1 RES     
   27776 H6        -641.9144  -427.9973   826.1369 H6            1 RES     
   27777 H6        -641.4355  -429.0629   828.3044 H6            1 RES     
   27778 H6        -643.1454  -428.5394   828.1322 H6            1 RES     
   27779 H6        -642.7073  -426.5329   829.5410 H6            1 RES     
   27780 H6        -640.9830  -427.0568   829.7578 H6            1 RES     
   27781 H6        -642.3209  -428.0732   830.3980 H6            1 RES     
   27782 H6        -637.5286  -424.6964   822.3445 H6            1 RES     
   27783 H6        -637.5157  -423.9907   823.9897 H6            1 RES     
   27784 H6        -637.9510  -422.4045   822.5053 H6            1 RES     
   27785 H6        -639.4063  -422.0503   821.7124 H6            1 RES     
   27786 H6        -639.3310  -422.0554   824.7801 H6            1 RES     
   27787 H6        -641.5403  -421.7907   823.6529 H6            1 RES     
   27788 H6        -641.1013  -420.4610   824.7718 H6            1 RES     
   27789 H6        -640.5745  -418.9314   822.9011 H6            1 RES     
   27790 H6        -640.8139  -420.2483   821.7315 H6            1 RES     
   27791 H6        -642.7531  -418.8968   821.6218 H6            1 RES     
   27792 H6        -643.2246  -420.4057   822.4374 H6            1 RES     
   27793 H6        -643.1461  -419.2348   824.6611 H6            1 RES     
   27794 H6        -644.3000  -418.4969   823.5057 H6            1 RES     
   27795 H6        -641.5074  -417.3703   824.2177 H6            1 RES     
   27796 H6        -643.1002  -416.7732   824.7754 H6            1 RES     
   27797 H6        -643.7457  -416.2151   822.4155 H6            1 RES     
   27798 H6        -642.2563  -415.3533   822.9541 H6            1 RES     
   27799 H6        -642.1114  -416.7539   821.8484 H6            1 RES     
   27800 H6        -637.4376  -420.7976   824.4960 H6            1 RES     
   27801 H6        -638.7396  -419.6028   824.7758 H6            1 RES     
   27802 H6        -638.6437  -419.2206   822.1459 H6            1 RES     
   27803 H6        -637.2358  -420.2903   822.1419 H6            1 RES     
   27804 H6        -636.6582  -417.9078   822.1273 H6            1 RES     
   27805 H6        -637.5640  -417.6150   823.6537 H6            1 RES     
   27806 H6        -635.0659  -419.4343   823.3906 H6            1 RES     
   27807 H6        -635.9955  -419.0971   824.8975 H6            1 RES     
   27808 H6        -635.4427  -416.6727   824.7483 H6            1 RES     
   27809 H6        -634.0185  -417.7616   824.9128 H6            1 RES     
   27810 H6        -634.9709  -416.4866   822.2680 H6            1 RES     
   27811 H6        -633.5497  -417.5758   822.4581 H6            1 RES     
   27812 H6        -632.9475  -415.1681   822.3070 H6            1 RES     
   27813 H6        -633.9462  -414.7896   823.7552 H6            1 RES     
   27814 H6        -632.4114  -416.2053   825.1644 H6            1 RES     
   27815 H6        -631.5108  -414.9329   824.2806 H6            1 RES     
   27816 H6        -631.4600  -416.6335   823.6820 H6            1 RES     
   27817 C0        -638.4104  -436.8911   823.1221 C0            1 RES     
   27818 C0        -639.4322  -438.0259   823.2002 C0            1 RES     
   27819 C0        -640.6601  -437.5645   823.5385 C0            1 RES     
   27820 S1        -641.8310  -438.7600   823.5773 S1            1 RES     
   27821 C0        -640.7190  -439.9706   823.1305 C0            1 RES     
   27822 C0        -639.4590  -439.3886   822.9102 C0            1 RES     
   27823 C0        -640.6325  -436.1439   823.5983 C0            1 RES     
   27824 C0        -639.4157  -435.7436   823.3053 C0            1 RES     
   27825 C0        -639.3652  -434.3113   823.0783 C0            1 RES     
   27826 C0        -640.6179  -433.7448   823.2592 C0            1 RES     
   27827 S1        -641.9114  -434.9096   823.7349 S1            1 RES     
   27828 H2        -638.6387  -439.9416   822.5046 H2            1 RES     
   27829 H2        -638.5254  -433.7705   822.6772 H2            1 RES     
   27830 N3        -640.1815  -443.6910   822.8867 N3            1 RES     
   27831 C0        -639.9593  -442.3526   823.0238 C0            1 RES     
   27832 C0        -641.0132  -441.4189   822.9607 C0            1 RES     
   27833 C0        -642.3057  -441.9323   822.7624 C0            1 RES     
   27834 N3        -643.4304  -441.1731   822.6743 N3            1 RES     
   27835 S1        -644.6070  -442.3055   822.4133 S1            1 RES     
   27836 N3        -643.7847  -443.7378   822.4037 N3            1 RES     
   27837 C0        -642.5061  -443.3306   822.6122 C0            1 RES     
   27838 C0        -641.4262  -444.2011   822.6793 C0            1 RES     
   27839 H4        -638.9553  -442.0180   823.2163 H4            1 RES     
   27840 C5        -637.4954  -445.5590   818.4899 C5            1 RES     
   27841 C5        -638.0212  -444.1228   818.4821 C5            1 RES     
   27842 C5        -637.9488  -443.4296   819.8543 C5            1 RES     
   27843 C5        -636.5190  -443.2799   820.4103 C5            1 RES     
   27844 C5        -636.5408  -442.5312   821.7542 C5            1 RES     
   27845 C5        -635.1779  -442.5389   822.4609 C5            1 RES     
   27846 C5        -635.2268  -441.8572   823.8491 C5            1 RES     
   27847 C5        -635.1767  -440.2978   823.8242 C5            1 RES     
   27848 C5        -636.4107  -439.5483   824.4148 C5            1 RES     
   27849 C5        -636.6584  -439.9024   825.9102 C5            1 RES     
   27850 C5        -638.1233  -439.6840   826.3325 C5            1 RES     
   27851 C5        -638.4751  -440.4990   827.5956 C5            1 RES     
   27852 C5        -639.9945  -440.5055   827.8429 C5            1 RES     
   27853 C5        -640.4355  -441.5350   828.8988 C5            1 RES     
   27854 C5        -639.9175  -441.2387   830.3018 C5            1 RES     
   27855 C5        -636.2130  -438.0225   824.1370 C5            1 RES     
   27856 C0        -637.2981  -436.8846   824.2626 C0            1 RES     
   27857 C5        -636.4680  -435.5282   824.2703 C5            1 RES     
   27858 C5        -636.2997  -434.8721   825.6816 C5            1 RES     
   27859 C5        -637.4957  -433.9512   826.0925 C5            1 RES     
   27860 C5        -637.5583  -432.5803   825.3787 C5            1 RES     
   27861 C5        -638.8388  -431.7746   825.6636 C5            1 RES     
   27862 C5        -638.9535  -431.1939   827.0860 C5            1 RES     
   27863 C5        -637.8613  -430.1704   827.4648 C5            1 RES     
   27864 C5        -637.8293  -428.9429   826.5482 C5            1 RES     
   27865 C5        -634.9069  -434.1915   825.8960 C5            1 RES     
   27866 C5        -634.3610  -433.2925   824.7565 C5            1 RES     
   27867 C5        -633.0927  -432.5052   825.1566 C5            1 RES     
   27868 C5        -631.9038  -433.3920   825.5726 C5            1 RES     
   27869 C5        -630.6459  -432.5872   825.9574 C5            1 RES     
   27870 C5        -630.0126  -431.8355   824.7705 C5            1 RES     
   27871 C5        -628.7581  -431.0306   825.1553 C5            1 RES     
   27872 C5        -627.5977  -431.8968   825.6473 C5            1 RES     
   27873 H6        -636.4117  -445.5851   818.7234 H6            1 RES     
   27874 H6        -637.6361  -446.0073   817.4833 H6            1 RES     
   27875 H6        -638.0501  -446.1729   819.2309 H6            1 RES     
   27876 H6        -637.4599  -443.5294   817.7294 H6            1 RES     
   27877 H6        -639.0892  -444.1534   818.1719 H6            1 RES     
   27878 H6        -638.4020  -442.4202   819.7473 H6            1 RES     
   27879 H6        -638.5648  -444.0086   820.5773 H6            1 RES     
   27880 H6        -635.8792  -442.7271   819.6881 H6            1 RES     
   27881 H6        -636.0909  -444.2915   820.5717 H6            1 RES     
   27882 H6        -636.8983  -441.4910   821.5971 H6            1 RES     
   27883 H6        -637.2400  -443.0735   822.4204 H6            1 RES     
   27884 H6        -634.9173  -443.6082   822.6247 H6            1 RES     
   27885 H6        -634.3798  -442.0872   821.8333 H6            1 RES     
   27886 H6        -636.0931  -442.2691   824.4051 H6            1 RES     
   27887 H6        -634.3177  -442.1831   824.3977 H6            1 RES     
   27888 H6        -635.0545  -439.9905   822.7612 H6            1 RES     
   27889 H6        -634.2570  -439.9549   824.3460 H6            1 RES     
   27890 H6        -637.2148  -439.9635   823.8496 H6            1 RES     
   27891 H6        -636.4923  -440.9874   826.0232 H6            1 RES     
   27892 H6        -635.9335  -439.4127   826.5958 H6            1 RES     
   27893 H6        -638.3571  -438.6045   826.4476 H6            1 RES     
   27894 H6        -638.7618  -440.0987   825.5245 H6            1 RES     
   27895 H6        -637.9178  -440.1186   828.4783 H6            1 RES     
   27896 H6        -638.1748  -441.5555   827.4171 H6            1 RES     
   27897 H6        -640.3464  -439.4869   828.1113 H6            1 RES     
   27898 H6        -640.4981  -440.8081   826.8974 H6            1 RES     
   27899 H6        -640.1011  -442.5510   828.5908 H6            1 RES     
   27900 H6        -641.5466  -441.5413   828.9353 H6            1 RES     
   27901 H6        -640.2744  -440.2429   830.6379 H6            1 RES     
   27902 H6        -638.8094  -441.2700   830.3322 H6            1 RES     
   27903 H6        -640.3051  -442.0101   831.0017 H6            1 RES     
   27904 H6        -635.8430  -437.9147   823.0931 H6            1 RES     
   27905 H6        -635.3661  -437.7548   824.8112 H6            1 RES     
   27906 H6        -635.4538  -435.7483   823.8756 H6            1 RES     
   27907 H6        -636.8050  -434.7833   823.5362 H6            1 RES     
   27908 H6        -636.3063  -435.7069   826.4197 H6            1 RES     
   27909 H6        -638.4374  -434.5139   825.9131 H6            1 RES     
   27910 H6        -637.4298  -433.7495   827.1831 H6            1 RES     
   27911 H6        -636.6929  -431.9522   825.6522 H6            1 RES     
   27912 H6        -637.5173  -432.7462   824.2922 H6            1 RES     
   27913 H6        -638.8931  -430.9336   824.9409 H6            1 RES     
   27914 H6        -639.7194  -432.4187   825.4663 H6            1 RES     
   27915 H6        -638.9457  -432.0214   827.8253 H6            1 RES     
   27916 H6        -639.9392  -430.6844   827.1647 H6            1 RES     
   27917 H6        -636.8605  -430.6484   827.4722 H6            1 RES     
   27918 H6        -638.0698  -429.8180   828.4980 H6            1 RES     
   27919 H6        -638.8177  -428.4359   826.5416 H6            1 RES     
   27920 H6        -637.0667  -428.2246   826.9168 H6            1 RES     
   27921 H6        -637.5515  -429.2219   825.5112 H6            1 RES     
   27922 H6        -634.1625  -435.0066   826.0183 H6            1 RES     
   27923 H6        -634.9413  -433.6304   826.8553 H6            1 RES     
   27924 H6        -635.0937  -432.5385   824.4354 H6            1 RES     
   27925 H6        -634.1360  -433.9109   823.8646 H6            1 RES     
   27926 H6        -632.8084  -431.8915   824.2771 H6            1 RES     
   27927 H6        -633.3422  -431.8159   825.9933 H6            1 RES     
   27928 H6        -631.6526  -434.1040   824.7569 H6            1 RES     
   27929 H6        -632.1966  -433.9754   826.4704 H6            1 RES     
   27930 H6        -630.8971  -431.8715   826.7709 H6            1 RES     
   27931 H6        -629.9070  -433.3153   826.3513 H6            1 RES     
   27932 H6        -630.7430  -431.1082   824.3620 H6            1 RES     
   27933 H6        -629.7522  -432.5590   823.9673 H6            1 RES     
   27934 H6        -628.4124  -430.4836   824.2510 H6            1 RES     
   27935 H6        -629.0154  -430.2806   825.9343 H6            1 RES     
   27936 H6        -627.8560  -432.4184   826.5908 H6            1 RES     
   27937 H6        -626.7175  -431.2502   825.8491 H6            1 RES     
   27938 H6        -627.3185  -432.6435   824.8743 H6            1 RES     
   27939 C0        -640.6040  -449.0396   821.1792 C0            1 RES     
   27940 C0        -641.9229  -449.8123   821.2182 C0            1 RES     
   27941 C0        -642.8677  -449.1443   821.9226 C0            1 RES     
   27942 S1        -644.3513  -449.9190   821.9439 S1            1 RES     
   27943 C0        -643.7784  -451.2074   820.9879 C0            1 RES     
   27944 C0        -642.4408  -450.9653   820.6317 C0            1 RES     
   27945 C0        -642.3621  -447.8712   822.3047 C0            1 RES     
   27946 C0        -641.1353  -447.7618   821.8469 C0            1 RES     
   27947 C0        -640.6446  -446.4005   821.9553 C0            1 RES     
   27948 C0        -641.5997  -445.5834   822.5410 C0            1 RES     
   27949 S1        -643.1263  -446.4234   823.0103 S1            1 RES     
   27950 H2        -641.9160  -451.5827   819.9341 H2            1 RES     
   27951 H2        -639.7379  -446.0250   821.5131 H2            1 RES     
   27952 N3        -644.5460  -454.6874   819.7673 N3            1 RES     
   27953 C0        -643.8753  -453.5668   820.1596 C0            1 RES     
   27954 C0        -644.5574  -452.3986   820.5554 C0            1 RES     
   27955 C0        -645.9612  -452.4464   820.5391 C0            1 RES     
   27956 N3        -646.7708  -451.4105   820.8864 N3            1 RES     
   27957 S1        -648.2808  -452.0381   820.6401 S1            1 RES     
   27958 N3        -647.9904  -453.5757   820.1113 N3            1 RES     
   27959 C0        -646.6334  -453.6241   820.1156 C0            1 RES     
   27960 C0        -645.9055  -454.7430   819.7325 C0            1 RES     
   27961 H4        -642.8007  -453.5997   820.1937 H4            1 RES     
   27962 C5        -643.2767  -455.8634   814.5671 C5            1 RES     
   27963 C5        -643.2916  -454.4006   815.0136 C5            1 RES     
   27964 C5        -642.8017  -454.1889   816.4572 C5            1 RES     
   27965 C5        -641.3402  -454.6169   816.6960 C5            1 RES     
   27966 C5        -640.9237  -454.3197   818.1469 C5            1 RES     
   27967 C5        -639.5558  -454.9169   818.5065 C5            1 RES     
   27968 C5        -639.1806  -454.6863   819.9898 C5            1 RES     
   27969 C5        -638.6197  -453.2679   820.3192 C5            1 RES     
   27970 C5        -639.4392  -452.4088   821.3309 C5            1 RES     
   27971 C5        -639.5782  -453.1003   822.7185 C5            1 RES     
   27972 C5        -640.8131  -452.6123   823.4989 C5            1 RES     
   27973 C5        -641.2346  -453.6279   824.5826 C5            1 RES     
   27974 C5        -642.6194  -453.2790   825.1572 C5            1 RES     
   27975 C5        -643.2245  -454.4049   826.0149 C5            1 RES     
   27976 C5        -642.4462  -454.6903   827.2945 C5            1 RES     
   27977 C5        -638.7874  -450.9885   821.3799 C5            1 RES     
   27978 C0        -639.4043  -449.6801   822.0089 C0            1 RES     
   27979 C5        -638.1787  -448.6762   822.1460 C5            1 RES     
   27980 C5        -637.6061  -448.5368   823.5963 C5            1 RES     
   27981 C5        -638.3585  -447.4791   824.4694 C5            1 RES     
   27982 C5        -638.0620  -445.9997   824.1285 C5            1 RES     
   27983 C5        -638.9492  -444.9867   824.8747 C5            1 RES     
   27984 C5        -638.6640  -444.8399   826.3815 C5            1 RES     
   27985 C5        -637.2523  -444.3224   826.7328 C5            1 RES     
   27986 C5        -636.9436  -442.9413   826.1453 C5            1 RES     
   27987 C5        -636.0509  -448.3692   823.6442 C5            1 RES     
   27988 C5        -635.4031  -447.3676   822.6534 C5            1 RES     
   27989 C5        -633.9025  -447.1218   822.9301 C5            1 RES     
   27990 C5        -633.0294  -448.3884   822.8486 C5            1 RES     
   27991 C5        -631.5350  -448.1191   823.1172 C5            1 RES     
   27992 C5        -630.8612  -447.2628   822.0274 C5            1 RES     
   27993 C5        -629.3698  -446.9926   822.2967 C5            1 RES     
   27994 C5        -628.5058  -448.2545   822.2984 C5            1 RES     
   27995 H6        -642.2418  -456.2603   814.5378 H6            1 RES     
   27996 H6        -643.6980  -455.9390   813.5420 H6            1 RES     
   27997 H6        -643.8941  -456.4853   815.2496 H6            1 RES     
   27998 H6        -642.6767  -453.7959   814.3138 H6            1 RES     
   27999 H6        -644.3416  -454.0374   814.9536 H6            1 RES     
   28000 H6        -642.9044  -453.1076   816.6938 H6            1 RES     
   28001 H6        -643.4671  -454.7565   817.1446 H6            1 RES     
   28002 H6        -640.6613  -454.0803   815.9978 H6            1 RES     
   28003 H6        -641.2540  -455.7091   816.5159 H6            1 RES     
   28004 H6        -640.9340  -453.2226   818.3218 H6            1 RES     
   28005 H6        -641.6625  -454.8137   818.8079 H6            1 RES     
   28006 H6        -639.6446  -456.0154   818.3531 H6            1 RES     
   28007 H6        -638.7494  -454.5448   817.8386 H6            1 RES     
   28008 H6        -640.0474  -454.9819   820.6147 H6            1 RES     
   28009 H6        -638.3637  -455.4003   820.2279 H6            1 RES     
   28010 H6        -638.5528  -452.7104   819.3580 H6            1 RES     
   28011 H6        -637.5749  -453.3658   820.6857 H6            1 RES     
   28012 H6        -640.4064  -452.3966   820.8804 H6            1 RES     
   28013 H6        -639.7675  -454.1717   822.5345 H6            1 RES     
   28014 H6        -638.6433  -453.0573   823.3181 H6            1 RES     
   28015 H6        -640.6566  -451.5937   823.9126 H6            1 RES     
   28016 H6        -641.6596  -452.5754   822.7817 H6            1 RES     
   28017 H6        -640.4647  -453.6953   825.3808 H6            1 RES     
   28018 H6        -641.3301  -454.6258   824.0994 H6            1 RES     
   28019 H6        -642.5720  -452.3277   825.7283 H6            1 RES     
   28020 H6        -643.3222  -453.1372   824.3057 H6            1 RES     
   28021 H6        -643.2929  -455.3373   825.4110 H6            1 RES     
   28022 H6        -644.2579  -454.1088   826.2983 H6            1 RES     
   28023 H6        -642.4015  -453.7781   827.9254 H6            1 RES     
   28024 H6        -641.4187  -455.0394   827.0663 H6            1 RES     
   28025 H6        -642.9656  -455.4911   827.8637 H6            1 RES     
   28026 H6        -638.5528  -450.6885   820.3343 H6            1 RES     
   28027 H6        -637.8140  -451.1793   821.8894 H6            1 RES     
   28028 H6        -637.3611  -449.0470   821.4928 H6            1 RES     
   28029 H6        -638.3488  -447.6858   821.7016 H6            1 RES     
   28030 H6        -637.7859  -449.5139   824.1010 H6            1 RES     
   28031 H6        -639.4489  -447.6761   824.3804 H6            1 RES     
   28032 H6        -638.0772  -447.6325   825.5333 H6            1 RES     
   28033 H6        -637.0079  -445.7490   824.3389 H6            1 RES     
   28034 H6        -638.2312  -445.8449   823.0528 H6            1 RES     
   28035 H6        -638.8220  -443.9912   824.3997 H6            1 RES     
   28036 H6        -640.0120  -445.2700   824.7359 H6            1 RES     
   28037 H6        -638.8277  -445.8147   826.8858 H6            1 RES     
   28038 H6        -639.4033  -444.1201   826.7970 H6            1 RES     
   28039 H6        -636.4763  -445.0429   826.4028 H6            1 RES     
   28040 H6        -637.1850  -444.2440   827.8394 H6            1 RES     
   28041 H6        -637.6982  -442.1981   826.4801 H6            1 RES     
   28042 H6        -635.9421  -442.6071   826.4899 H6            1 RES     
   28043 H6        -636.9224  -442.9710   825.0367 H6            1 RES     
   28044 H6        -635.6099  -449.3593   823.4019 H6            1 RES     
   28045 H6        -635.7622  -448.1274   824.6905 H6            1 RES     
   28046 H6        -635.8813  -446.3785   822.6908 H6            1 RES     
   28047 H6        -635.5234  -447.7350   821.6147 H6            1 RES     
   28048 H6        -633.5570  -446.3835   822.1774 H6            1 RES     
   28049 H6        -633.7892  -446.6665   823.9386 H6            1 RES     
   28050 H6        -633.1458  -448.8710   821.8541 H6            1 RES     
   28051 H6        -633.3703  -449.1019   823.6275 H6            1 RES     
   28052 H6        -631.4177  -447.6324   824.1104 H6            1 RES     
   28053 H6        -631.0321  -449.1076   823.1533 H6            1 RES     
   28054 H6        -631.3584  -446.2732   821.9754 H6            1 RES     
   28055 H6        -630.9710  -447.7623   821.0400 H6            1 RES     
   28056 H6        -628.9925  -446.3252   821.4913 H6            1 RES     
   28057 H6        -629.2517  -446.4627   823.2667 H6            1 RES     
   28058 H6        -628.7876  -448.9346   823.1273 H6            1 RES     
   28059 H6        -627.4418  -447.9701   822.4421 H6            1 RES     
   28060 H6        -628.6016  -448.7893   821.3300 H6            1 RES     
   28061 C0        -646.9548  -458.9573   816.9982 C0            1 RES     
   28062 C0        -648.4360  -459.3040   817.1518 C0            1 RES     
   28063 C0        -648.9970  -458.6340   818.1869 C0            1 RES     
   28064 S1        -650.6350  -458.9310   818.3603 S1            1 RES     
   28065 C0        -650.6623  -459.9899   817.0261 C0            1 RES     
   28066 C0        -649.3841  -460.0406   816.4444 C0            1 RES     
   28067 C0        -648.0492  -457.7244   818.7318 C0            1 RES     
   28068 C0        -646.9326  -457.8355   818.0480 C0            1 RES     
   28069 C0        -646.0079  -456.7610   818.3579 C0            1 RES     
   28070 C0        -646.5456  -455.9171   819.3178 C0            1 RES     
   28071 S1        -648.1826  -456.3928   819.9095 S1            1 RES     
   28072 H2        -649.1972  -460.5482   815.5222 H2            1 RES     
   28073 H2        -645.0995  -456.5433   817.8230 H2            1 RES     
   28074 N3        -652.7044  -462.5975   815.2317 N3            1 RES     
   28075 C0        -651.6519  -461.8767   815.7134 C0            1 RES     
   28076 C0        -651.8449  -460.7331   816.5143 C0            1 RES     
   28077 C0        -653.1726  -460.3771   816.8039 C0            1 RES     
   28078 N3        -653.5353  -459.3044   817.5567 N3            1 RES     
   28079 S1        -655.1868  -459.3813   817.5173 S1            1 RES     
   28080 N3        -655.5003  -460.7135   816.5926 N3            1 RES     
   28081 C0        -654.2499  -461.1405   816.2797 C0            1 RES     
   28082 C0        -653.9960  -462.2557   815.4920 C0            1 RES     
   28083 H4        -650.6556  -462.2189   815.4959 H4            1 RES     
   28084 C5        -652.6398  -462.5074   809.7523 C5            1 RES     
   28085 C5        -652.1056  -461.2970   810.5197 C5            1 RES     
   28086 C5        -651.3760  -461.6637   811.8242 C5            1 RES     
   28087 C5        -650.1212  -462.5357   811.6209 C5            1 RES     
   28088 C5        -649.4306  -462.8058   812.9689 C5            1 RES     
   28089 C5        -648.3023  -463.8415   812.8614 C5            1 RES     
   28090 C5        -647.6678  -464.1703   814.2338 C5            1 RES     
   28091 C5        -646.6277  -463.1280   814.7503 C5            1 RES     
   28092 C5        -646.9652  -462.4084   816.0925 C5            1 RES     
   28093 C5        -647.1298  -463.4074   817.2748 C5            1 RES     
   28094 C5        -648.0103  -462.8426   818.4051 C5            1 RES     
   28095 C5        -648.5886  -463.9693   819.2879 C5            1 RES     
   28096 C5        -649.6841  -463.4292   820.2249 C5            1 RES     
   28097 C5        -650.5020  -464.5391   820.9096 C5            1 RES     
   28098 C5        -649.6913  -465.3932   821.8779 C5            1 RES     
   28099 C5        -645.8788  -461.3080   816.3238 C5            1 RES     
   28100 C0        -645.9319  -460.1228   817.3632 C0            1 RES     
   28101 C5        -644.4362  -459.5900   817.4513 C5            1 RES     
   28102 C5        -643.6525  -460.0481   818.7267 C5            1 RES     
   28103 C5        -643.8808  -459.1253   819.9691 C5            1 RES     
   28104 C5        -643.1610  -457.7569   819.9253 C5            1 RES     
   28105 C5        -643.5478  -456.7999   821.0676 C5            1 RES     
   28106 C5        -643.0217  -457.1869   822.4629 C5            1 RES     
   28107 C5        -641.4839  -457.2136   822.5981 C5            1 RES     
   28108 C5        -640.8199  -455.8663   822.2954 C5            1 RES     
   28109 C5        -642.1393  -460.3462   818.4608 C5            1 RES     
   28110 C5        -641.3415  -459.3230   817.6116 C5            1 RES     
   28111 C5        -639.8214  -459.6013   817.5927 C5            1 RES     
   28112 C5        -639.4387  -460.9805   817.0231 C5            1 RES     
   28113 C5        -637.9176  -461.2332   817.0035 C5            1 RES     
   28114 C5        -637.1576  -460.3212   816.0209 C5            1 RES     
   28115 C5        -635.6390  -460.5724   816.0028 C5            1 RES     
   28116 C5        -635.2516  -461.9692   815.5150 C5            1 RES     
   28117 H6        -651.8103  -463.1526   809.3987 H6            1 RES     
   28118 H6        -653.2016  -462.1580   808.8599 H6            1 RES     
   28119 H6        -653.3264  -463.1019   810.3917 H6            1 RES     
   28120 H6        -651.4294  -460.7124   809.8604 H6            1 RES     
   28121 H6        -652.9730  -460.6522   810.7842 H6            1 RES     
   28122 H6        -651.0797  -460.7158   812.3237 H6            1 RES     
   28123 H6        -652.0887  -462.1965   812.4917 H6            1 RES     
   28124 H6        -649.4076  -462.0319   810.9329 H6            1 RES     
   28125 H6        -650.4285  -463.5055   811.1761 H6            1 RES     
   28126 H6        -649.0516  -461.8514   813.3928 H6            1 RES     
   28127 H6        -650.1911  -463.2430   813.6452 H6            1 RES     
   28128 H6        -648.7713  -464.7755   812.4797 H6            1 RES     
   28129 H6        -647.5202  -463.5327   812.1349 H6            1 RES     
   28130 H6        -648.4869  -464.3796   814.9511 H6            1 RES     
   28131 H6        -647.1094  -465.1222   814.1082 H6            1 RES     
   28132 H6        -646.5150  -462.3560   813.9562 H6            1 RES     
   28133 H6        -645.6341  -463.6186   814.8387 H6            1 RES     
   28134 H6        -647.9265  -461.9936   815.8871 H6            1 RES     
   28135 H6        -647.6878  -464.2796   816.8932 H6            1 RES     
   28136 H6        -646.1593  -463.8064   817.6414 H6            1 RES     
   28137 H6        -647.4683  -462.0766   818.9991 H6            1 RES     
   28138 H6        -648.8883  -462.3609   817.9260 H6            1 RES     
   28139 H6        -647.7809  -464.4810   819.8539 H6            1 RES     
   28140 H6        -649.0767  -464.7131   818.6193 H6            1 RES     
   28141 H6        -649.2440  -462.7402   820.9766 H6            1 RES     
   28142 H6        -650.4120  -462.8528   819.6109 H6            1 RES     
   28143 H6        -650.9599  -465.1953   820.1360 H6            1 RES     
   28144 H6        -651.3280  -464.0608   821.4795 H6            1 RES     
   28145 H6        -649.2584  -464.7568   822.6777 H6            1 RES     
   28146 H6        -648.8806  -465.9344   821.3491 H6            1 RES     
   28147 H6        -650.3618  -466.1456   822.3463 H6            1 RES     
   28148 H6        -645.7071  -460.7939   815.3519 H6            1 RES     
   28149 H6        -644.9627  -461.9052   816.5418 H6            1 RES     
   28150 H6        -643.8881  -459.9677   816.5627 H6            1 RES     
   28151 H6        -644.3284  -458.5070   817.3005 H6            1 RES     
   28152 H6        -644.0737  -461.0382   819.0163 H6            1 RES     
   28153 H6        -644.9758  -458.9727   820.0845 H6            1 RES     
   28154 H6        -643.5201  -459.6559   820.8762 H6            1 RES     
   28155 H6        -642.0650  -457.8857   819.9455 H6            1 RES     
   28156 H6        -643.4183  -457.2530   818.9821 H6            1 RES     
   28157 H6        -643.1653  -455.7869   820.8222 H6            1 RES     
   28158 H6        -644.6527  -456.7193   821.1096 H6            1 RES     
   28159 H6        -643.4273  -458.1793   822.7492 H6            1 RES     
   28160 H6        -643.4143  -456.4427   823.1906 H6            1 RES     
   28161 H6        -641.0454  -457.9938   821.9428 H6            1 RES     
   28162 H6        -641.2399  -457.4848   823.6480 H6            1 RES     
   28163 H6        -641.2302  -455.0728   822.9556 H6            1 RES     
   28164 H6        -639.7264  -455.9433   822.4738 H6            1 RES     
   28165 H6        -640.9654  -455.5749   821.2350 H6            1 RES     
   28166 H6        -642.0905  -461.3042   817.9010 H6            1 RES     
   28167 H6        -641.6431  -460.5126   819.4419 H6            1 RES     
   28168 H6        -641.4541  -458.2955   817.9858 H6            1 RES     
   28169 H6        -641.7213  -459.3211   816.5704 H6            1 RES     
   28170 H6        -639.3595  -458.8034   816.9754 H6            1 RES     
   28171 H6        -639.4231  -459.5121   818.6275 H6            1 RES     
   28172 H6        -639.8469  -461.0979   815.9960 H6            1 RES     
   28173 H6        -639.8843  -461.7648   817.6700 H6            1 RES     
   28174 H6        -637.5074  -461.1121   818.0302 H6            1 RES     
   28175 H6        -637.7715  -462.2887   816.6935 H6            1 RES     
   28176 H6        -637.3003  -459.2617   816.3147 H6            1 RES     
   28177 H6        -637.5642  -460.4579   814.9950 H6            1 RES     
   28178 H6        -635.1785  -459.8329   815.3118 H6            1 RES     
   28179 H6        -635.2169  -460.4052   817.0174 H6            1 RES     
   28180 H6        -635.6240  -462.7541   816.2036 H6            1 RES     
   28181 H6        -634.1445  -462.0505   815.4776 H6            1 RES     
   28182 H6        -635.6542  -462.1476   814.4956 H6            1 RES     
   28183 C0        -656.7568  -465.0122   812.1579 C0            1 RES     
   28184 C0        -658.2322  -464.9575   812.5558 C0            1 RES     
   28185 C0        -658.3879  -464.4903   813.8178 C0            1 RES     
   28186 S1        -659.9903  -464.3520   814.2814 S1            1 RES     
   28187 C0        -660.5542  -464.9216   812.7782 C0            1 RES     
   28188 C0        -659.4602  -465.1572   811.9282 C0            1 RES     
   28189 C0        -657.1255  -464.0850   814.3321 C0            1 RES     
   28190 C0        -656.2167  -464.3004   813.4078 C0            1 RES     
   28191 C0        -654.9540  -463.6691   813.7436 C0            1 RES     
   28192 C0        -655.0408  -463.0275   814.9698 C0            1 RES     
   28193 S1        -656.6429  -463.1751   815.7871 S1            1 RES     
   28194 H2        -659.5837  -465.4038   810.8952 H2            1 RES     
   28195 H2        -654.1093  -463.5691   813.0839 H2            1 RES     
   28196 N3        -663.5762  -466.2054   810.9320 N3            1 RES     
   28197 C0        -662.2876  -465.9836   811.3188 C0            1 RES     
   28198 C0        -661.9758  -465.1185   812.3869 C0            1 RES     
   28199 C0        -663.0556  -464.5046   813.0431 C0            1 RES     
   28200 N3        -662.9323  -463.6425   814.0874 N3            1 RES     
   28201 S1        -664.5039  -463.2369   814.4042 S1            1 RES     
   28202 N3        -665.3682  -464.0956   813.2891 N3            1 RES     
   28203 C0        -664.3874  -464.7460   812.6116 C0            1 RES     
   28204 C0        -664.6311  -465.6061   811.5489 C0            1 RES     
   28205 H4        -661.5022  -466.5129   810.8087 H4            1 RES     
   28206 C5        -664.2543  -464.5378   805.7555 C5            1 RES     
   28207 C5        -663.2467  -463.8064   806.6437 C5            1 RES     
   28208 C5        -662.5048  -464.7285   807.6276 C5            1 RES     
   28209 C5        -661.6522  -465.8187   806.9490 C5            1 RES     
   28210 C5        -660.9087  -466.6543   808.0054 C5            1 RES     
   28211 C5        -660.2150  -467.8866   807.4078 C5            1 RES     
   28212 C5        -659.5398  -468.7672   808.4861 C5            1 RES     
   28213 C5        -658.1511  -468.2582   808.9838 C5            1 RES     
   28214 C5        -658.0390  -467.8984   810.4975 C5            1 RES     
   28215 C5        -658.3583  -469.1112   811.4196 C5            1 RES     
   28216 C5        -658.8338  -468.6781   812.8190 C5            1 RES     
   28217 C5        -659.6234  -469.8036   813.5211 C5            1 RES     
   28218 C5        -660.3347  -469.2761   814.7804 C5            1 RES     
   28219 C5        -661.3700  -470.2608   815.3530 C5            1 RES     
   28220 C5        -660.7615  -471.5528   815.8869 C5            1 RES     
   28221 C5        -656.6279  -467.2659   810.7285 C5            1 RES     
   28222 C0        -656.1384  -466.4719   812.0005 C0            1 RES     
   28223 C5        -654.5539  -466.4313   811.8713 C5            1 RES     
   28224 C5        -653.7960  -467.4435   812.7941 C5            1 RES     
   28225 C5        -653.5286  -466.8995   814.2363 C5            1 RES     
   28226 C5        -652.4091  -465.8384   814.3523 C5            1 RES     
   28227 C5        -652.2921  -465.1893   815.7434 C5            1 RES     
   28228 C5        -651.7342  -466.0992   816.8544 C5            1 RES     
   28229 C5        -650.2895  -466.5957   816.6295 C5            1 RES     
   28230 C5        -649.2654  -465.4625   816.5083 C5            1 RES     
   28231 C5        -652.5207  -468.0637   812.1322 C5            1 RES     
   28232 C5        -651.5560  -467.1044   811.3881 C5            1 RES     
   28233 C5        -650.2329  -467.7806   810.9629 C5            1 RES     
   28234 C5        -650.4136  -468.9821   810.0157 C5            1 RES     
   28235 C5        -649.0813  -469.6351   809.5955 C5            1 RES     
   28236 C5        -648.2074  -468.7277   808.7078 C5            1 RES     
   28237 C5        -646.8767  -469.3790   808.2900 C5            1 RES     
   28238 C5        -647.0473  -470.6218   807.4151 C5            1 RES     
   28239 H6        -663.7442  -465.2573   805.0835 H6            1 RES     
   28240 H6        -664.7875  -463.7994   805.1195 H6            1 RES     
   28241 H6        -665.0025  -465.0752   806.3761 H6            1 RES     
   28242 H6        -662.5142  -463.2694   806.0043 H6            1 RES     
   28243 H6        -663.8047  -463.0506   807.2399 H6            1 RES     
   28244 H6        -661.8438  -464.0916   808.2547 H6            1 RES     
   28245 H6        -663.2529  -465.2103   808.2952 H6            1 RES     
   28246 H6        -660.9158  -465.3576   806.2552 H6            1 RES     
   28247 H6        -662.3232  -466.4885   806.3710 H6            1 RES     
   28248 H6        -660.1789  -466.0126   808.5440 H6            1 RES     
   28249 H6        -661.6683  -467.0379   808.7144 H6            1 RES     
   28250 H6        -661.0160  -468.4968   806.9342 H6            1 RES     
   28251 H6        -659.4848  -467.6117   806.6165 H6            1 RES     
   28252 H6        -660.2728  -468.9380   809.3003 H6            1 RES     
   28253 H6        -659.3524  -469.7575   808.0192 H6            1 RES     
   28254 H6        -657.9011  -467.3519   808.3876 H6            1 RES     
   28255 H6        -657.3748  -469.0118   808.7291 H6            1 RES     
   28256 H6        -658.8269  -467.1888   810.6166 H6            1 RES     
   28257 H6        -659.2218  -469.6397   810.9806 H6            1 RES     
   28258 H6        -657.5340  -469.8560   811.4545 H6            1 RES     
   28259 H6        -657.9907  -468.3042   813.4376 H6            1 RES     
   28260 H6        -659.5601  -467.8508   812.6761 H6            1 RES     
   28261 H6        -658.9605  -470.6639   813.7550 H6            1 RES     
   28262 H6        -660.4193  -470.1504   812.8250 H6            1 RES     
   28263 H6        -659.5901  -468.9901   815.5531 H6            1 RES     
   28264 H6        -660.9085  -468.3649   814.4981 H6            1 RES     
   28265 H6        -662.1235  -470.5054   814.5712 H6            1 RES     
   28266 H6        -661.9019  -469.7583   816.1899 H6            1 RES     
   28267 H6        -660.0343  -471.3268   816.6944 H6            1 RES     
   28268 H6        -660.2590  -472.1206   815.0776 H6            1 RES     
   28269 H6        -661.5710  -472.1890   816.3052 H6            1 RES     
   28270 H6        -656.4333  -466.5599   809.8906 H6            1 RES     
   28271 H6        -655.9410  -468.1330   810.5889 H6            1 RES     
   28272 H6        -654.2926  -466.6706   810.8191 H6            1 RES     
   28273 H6        -654.1151  -465.4277   811.9573 H6            1 RES     
   28274 H6        -654.4769  -468.3148   812.9317 H6            1 RES     
   28275 H6        -654.4832  -466.4859   814.6278 H6            1 RES     
   28276 H6        -653.2410  -467.7513   814.8891 H6            1 RES     
   28277 H6        -651.4266  -466.2703   814.0944 H6            1 RES     
   28278 H6        -652.6141  -465.0296   813.6358 H6            1 RES     
   28279 H6        -651.6335  -464.2992   815.6617 H6            1 RES     
   28280 H6        -653.2902  -464.8173   816.0508 H6            1 RES     
   28281 H6        -652.4018  -466.9760   816.9847 H6            1 RES     
   28282 H6        -651.7513  -465.5217   817.8049 H6            1 RES     
   28283 H6        -650.2313  -467.2403   815.7287 H6            1 RES     
   28284 H6        -650.0048  -467.2193   817.5043 H6            1 RES     
   28285 H6        -649.2922  -464.8151   817.4106 H6            1 RES     
   28286 H6        -648.2459  -465.8925   816.4128 H6            1 RES     
   28287 H6        -649.4531  -464.8450   815.6061 H6            1 RES     
   28288 H6        -652.8717  -468.7892   811.3679 H6            1 RES     
   28289 H6        -651.9755  -468.6424   812.9095 H6            1 RES     
   28290 H6        -651.2675  -466.2431   812.0074 H6            1 RES     
   28291 H6        -652.0556  -466.6911   810.4893 H6            1 RES     
   28292 H6        -649.6238  -467.0007   810.4612 H6            1 RES     
   28293 H6        -649.6867  -468.1140   811.8727 H6            1 RES     
   28294 H6        -650.9773  -468.6740   809.1087 H6            1 RES     
   28295 H6        -650.9989  -469.7629   810.5449 H6            1 RES     
   28296 H6        -648.5145  -469.9401   810.5026 H6            1 RES     
   28297 H6        -649.3388  -470.5500   809.0229 H6            1 RES     
   28298 H6        -647.9477  -467.8053   809.2654 H6            1 RES     
   28299 H6        -648.7759  -468.4381   807.7972 H6            1 RES     
   28300 H6        -646.2985  -468.6304   807.7054 H6            1 RES     
   28301 H6        -646.2852  -469.6418   809.1937 H6            1 RES     
   28302 H6        -647.5587  -471.4359   807.9670 H6            1 RES     
   28303 H6        -646.0468  -470.9964   807.1114 H6            1 RES     
   28304 H6        -647.6250  -470.3734   806.4999 H6            1 RES     
   28305 C0        -668.5889  -466.3734   808.3733 C0            1 RES     
   28306 C0        -669.8912  -466.0250   809.0948 C0            1 RES     
   28307 C0        -669.7044  -465.9235   810.4327 C0            1 RES     
   28308 S1        -671.0882  -465.4821   811.2645 S1            1 RES     
   28309 C0        -672.0141  -465.4044   809.8367 C0            1 RES     
   28310 C0        -671.1909  -465.6785   808.7312 C0            1 RES     
   28311 C0        -668.3201  -466.0585   810.7295 C0            1 RES     
   28312 C0        -667.6734  -466.2405   809.6002 C0            1 RES     
   28313 C0        -666.2389  -466.1168   809.7808 C0            1 RES     
   28314 C0        -665.9351  -465.8648   811.1101 C0            1 RES     
   28315 S1        -667.3640  -465.7884   812.2096 S1            1 RES     
   28316 H2        -671.5328  -465.5668   807.7244 H2            1 RES     
   28317 H2        -665.5104  -466.0699   808.9899 H2            1 RES     
   28318 N3        -675.5181  -465.1876   808.4713 N3            1 RES     
   28319 C0        -674.1882  -465.4604   808.5987 C0            1 RES     
   28320 C0        -673.4605  -465.0700   809.7408 C0            1 RES     
   28321 C0        -674.1720  -464.3973   810.7481 C0            1 RES     
   28322 N3        -673.6244  -463.9497   811.9095 N3            1 RES     
   28323 S1        -674.9115  -463.2297   812.6579 S1            1 RES     
   28324 N3        -676.1590  -463.4452   811.5972 N3            1 RES     
   28325 C0        -675.5549  -464.1172   810.5836 C0            1 RES     
   28326 C0        -676.2168  -464.5238   809.4324 C0            1 RES     
   28327 H4        -673.7028  -466.0157   807.8157 H4            1 RES     
   28328 C5        -676.3230  -461.9581   804.1171 C5            1 RES     
   28329 C5        -675.0157  -461.8328   804.9011 C5            1 RES     
   28330 C5        -674.4918  -463.1721   805.4493 C5            1 RES     
   28331 C5        -674.1535  -464.2097   804.3607 C5            1 RES     
   28332 C5        -673.5890  -465.4915   804.9973 C5            1 RES     
   28333 C5        -673.4347  -466.6380   803.9879 C5            1 RES     
   28334 C5        -672.9460  -467.9482   804.6502 C5            1 RES     
   28335 C5        -671.4119  -468.0191   804.9270 C5            1 RES     
   28336 C5        -670.9756  -468.1648   806.4175 C5            1 RES     
   28337 C5        -671.5467  -469.4532   807.0784 C5            1 RES     
   28338 C5        -671.6503  -469.3333   808.6104 C5            1 RES     
   28339 C5        -672.6620  -470.3453   809.1895 C5            1 RES     
   28340 C5        -672.9739  -470.0317   810.6640 C5            1 RES     
   28341 C5        -674.1862  -470.8081   811.2089 C5            1 RES     
   28342 C5        -673.9725  -472.3162   811.2751 C5            1 RES     
   28343 C5        -669.4170  -468.0511   806.4659 C5            1 RES     
   28344 C0        -668.5185  -467.8353   807.7442 C0            1 RES     
   28345 C5        -667.0451  -468.2060   807.2746 C5            1 RES     
   28346 C5        -666.5446  -469.6142   807.7403 C5            1 RES     
   28347 C5        -665.9124  -469.6143   809.1712 C5            1 RES     
   28348 C5        -664.4996  -468.9933   809.2767 C5            1 RES     
   28349 C5        -663.9800  -468.8400   810.7177 C5            1 RES     
   28350 C5        -663.6058  -470.1536   811.4304 C5            1 RES     
   28351 C5        -662.4545  -470.9477   810.7764 C5            1 RES     
   28352 C5        -661.1401  -470.1645   810.6956 C5            1 RES     
   28353 C5        -665.6536  -470.3460   806.6821 C5            1 RES     
   28354 C5        -664.5396  -469.5228   805.9850 C5            1 RES     
   28355 C5        -663.5895  -470.3884   805.1268 C5            1 RES     
   28356 C5        -664.2896  -471.1585   803.9910 C5            1 RES     
   28357 C5        -663.3224  -472.0069   803.1409 C5            1 RES     
   28358 C5        -662.3305  -471.1636   802.3163 C5            1 RES     
   28359 C5        -661.3640  -472.0107   801.4692 C5            1 RES     
   28360 C5        -662.0583  -472.8426   800.3899 C5            1 RES     
   28361 H6        -676.1801  -462.5624   803.1985 H6            1 RES     
   28362 H6        -676.6645  -460.9472   803.8081 H6            1 RES     
   28363 H6        -677.1122  -462.4204   804.7472 H6            1 RES     
   28364 H6        -674.2439  -461.3608   804.2567 H6            1 RES     
   28365 H6        -675.2018  -461.1597   805.7673 H6            1 RES     
   28366 H6        -673.5759  -462.9594   806.0423 H6            1 RES     
   28367 H6        -675.2560  -463.5975   806.1367 H6            1 RES     
   28368 H6        -673.4107  -463.7923   803.6462 H6            1 RES     
   28369 H6        -675.0827  -464.4640   803.8087 H6            1 RES     
   28370 H6        -672.6198  -465.2679   805.4922 H6            1 RES     
   28371 H6        -674.3256  -465.8360   805.7494 H6            1 RES     
   28372 H6        -674.4508  -466.8318   803.5779 H6            1 RES     
   28373 H6        -672.7733  -466.3605   803.1392 H6            1 RES     
   28374 H6        -673.5723  -468.1365   805.5455 H6            1 RES     
   28375 H6        -673.1653  -468.7693   803.9351 H6            1 RES     
   28376 H6        -670.9615  -467.0867   804.5183 H6            1 RES     
   28377 H6        -670.9735  -468.8517   804.3351 H6            1 RES     
   28378 H6        -671.4584  -467.3296   806.8734 H6            1 RES     
   28379 H6        -672.5892  -469.5650   806.7343 H6            1 RES     
   28380 H6        -671.0201  -470.3760   806.7518 H6            1 RES     
   28381 H6        -670.6530  -469.4097   809.0929 H6            1 RES     
   28382 H6        -672.0733  -468.3311   808.8320 H6            1 RES     
   28383 H6        -672.2964  -471.3865   809.0605 H6            1 RES     
   28384 H6        -673.6172  -470.2348   808.6293 H6            1 RES     
   28385 H6        -672.0761  -470.2058   811.2941 H6            1 RES     
   28386 H6        -673.2464  -468.9550   810.7391 H6            1 RES     
   28387 H6        -675.0799  -470.5910   810.5820 H6            1 RES     
   28388 H6        -674.3982  -470.4441   812.2377 H6            1 RES     
   28389 H6        -673.1059  -472.5506   811.9279 H6            1 RES     
   28390 H6        -673.8057  -472.7397   810.2638 H6            1 RES     
   28391 H6        -674.8802  -472.7925   811.7046 H6            1 RES     
   28392 H6        -669.1186  -467.2154   805.7944 H6            1 RES     
   28393 H6        -669.0836  -468.9960   805.9766 H6            1 RES     
   28394 H6        -667.0282  -468.1902   806.1645 H6            1 RES     
   28395 H6        -666.2905  -467.4373   807.4915 H6            1 RES     
   28396 H6        -667.4497  -470.2593   807.8204 H6            1 RES     
   28397 H6        -666.6107  -469.0824   809.8532 H6            1 RES     
   28398 H6        -665.8354  -470.6647   809.5250 H6            1 RES     
   28399 H6        -663.7626  -469.5887   808.7105 H6            1 RES     
   28400 H6        -664.5229  -467.9867   808.8340 H6            1 RES     
   28401 H6        -663.0817  -468.1877   810.7000 H6            1 RES     
   28402 H6        -664.7445  -468.3092   811.3203 H6            1 RES     
   28403 H6        -664.5013  -470.8053   811.4993 H6            1 RES     
   28404 H6        -663.2969  -469.8990   812.4682 H6            1 RES     
   28405 H6        -662.7404  -471.2896   809.7606 H6            1 RES     
   28406 H6        -662.2732  -471.8538   811.3940 H6            1 RES     
   28407 H6        -660.8237  -469.8293   811.7063 H6            1 RES     
   28408 H6        -660.3452  -470.8163   810.2752 H6            1 RES     
   28409 H6        -661.2367  -469.2834   810.0288 H6            1 RES     
   28410 H6        -666.3289  -470.6867   805.8688 H6            1 RES     
   28411 H6        -665.2281  -471.2556   807.1594 H6            1 RES     
   28412 H6        -663.8978  -468.9979   806.7069 H6            1 RES     
   28413 H6        -664.9946  -468.7415   805.3439 H6            1 RES     
   28414 H6        -662.8328  -469.7000   804.6973 H6            1 RES     
   28415 H6        -663.0630  -471.1129   805.7866 H6            1 RES     
   28416 H6        -664.8404  -470.4530   803.3320 H6            1 RES     
   28417 H6        -665.0205  -471.8623   804.4410 H6            1 RES     
   28418 H6        -662.7677  -472.7105   803.8000 H6            1 RES     
   28419 H6        -663.9465  -472.6032   802.4435 H6            1 RES     
   28420 H6        -661.7039  -470.5568   803.0007 H6            1 RES     
   28421 H6        -662.8924  -470.4725   801.6506 H6            1 RES     
   28422 H6        -660.6581  -471.3181   800.9608 H6            1 RES     
   28423 H6        -660.7727  -472.6817   802.1294 H6            1 RES     
   28424 H6        -662.7281  -473.6044   800.8370 H6            1 RES     
   28425 H6        -661.2919  -473.3775   799.7897 H6            1 RES     
   28426 H6        -662.6430  -472.1853   799.7124 H6            1 RES     
   28427 C0        -680.6086  -463.1828   807.1410 C0            1 RES     
   28428 C0        -681.6067  -462.7094   808.1982 C0            1 RES     
   28429 C0        -681.2112  -463.0606   809.4453 C0            1 RES     
   28430 S1        -682.2389  -462.5115   810.6470 S1            1 RES     
   28431 C0        -683.2770  -461.7623   809.5231 C0            1 RES     
   28432 C0        -682.7551  -461.9208   808.2280 C0            1 RES     
   28433 C0        -679.9231  -463.6601   809.3827 C0            1 RES     
   28434 C0        -679.5385  -463.6778   808.1263 C0            1 RES     
   28435 C0        -678.1340  -464.0210   808.0029 C0            1 RES     
   28436 C0        -677.5806  -464.2652   809.2507 C0            1 RES     
   28437 S1        -678.7340  -464.1152   810.6304 S1            1 RES     
   28438 H2        -683.1781  -461.4280   807.3787 H2            1 RES     
   28439 H2        -677.5497  -463.9515   807.1016 H2            1 RES     
   28440 N3        -686.6652  -460.1793   809.0715 N3            1 RES     
   28441 C0        -685.4973  -460.8399   808.8287 C0            1 RES     
   28442 C0        -684.5287  -461.0219   809.8363 C0            1 RES     
   28443 C0        -684.8279  -460.5019   811.1065 C0            1 RES     
   28444 N3        -684.0058  -460.5865   812.1863 N3            1 RES     
   28445 S1        -684.8625  -459.7856   813.3522 S1            1 RES     
   28446 N3        -686.2465  -459.3214   812.5796 N3            1 RES     
   28447 C0        -686.0481  -459.8088   811.3279 C0            1 RES     
   28448 C0        -686.9618  -459.6574   810.2931 C0            1 RES     
   28449 H4        -685.3385  -461.2548   807.8490 H4            1 RES     
   28450 C5        -686.9546  -455.7272   805.8885 C5            1 RES     
   28451 C5        -685.5836  -456.2097   806.3649 C5            1 RES     
   28452 C5        -685.4625  -457.7415   806.4526 C5            1 RES     
   28453 C5        -685.6439  -458.4664   805.1044 C5            1 RES     
   28454 C5        -685.4536  -459.9829   805.2800 C5            1 RES     
   28455 C5        -685.8317  -460.7788   804.0227 C5            1 RES     
   28456 C5        -685.7177  -462.3075   804.2330 C5            1 RES     
   28457 C5        -684.2714  -462.8847   804.1327 C5            1 RES     
   28458 C5        -683.7038  -463.5767   805.4103 C5            1 RES     
   28459 C5        -684.5716  -464.7870   805.8632 C5            1 RES     
   28460 C5        -684.4136  -465.0965   807.3636 C5            1 RES     
   28461 C5        -685.6120  -465.9064   807.9030 C5            1 RES     
   28462 C5        -685.5921  -465.9636   809.4412 C5            1 RES     
   28463 C5        -686.9043  -466.4918   810.0483 C5            1 RES     
   28464 C5        -687.1962  -467.9496   809.7106 C5            1 RES     
   28465 C5        -682.2054  -463.9251   805.1315 C5            1 RES     
   28466 C0        -681.1164  -464.3547   806.1886 C0            1 RES     
   28467 C5        -679.9308  -464.9703   805.3260 C5            1 RES     
   28468 C5        -679.8660  -466.5344   805.3249 C5            1 RES     
   28469 C5        -679.0757  -467.1310   806.5359 C5            1 RES     
   28470 C5        -677.5369  -466.9915   806.4624 C5            1 RES     
   28471 C5        -676.7993  -467.4192   807.7443 C5            1 RES     
   28472 C5        -676.7863  -468.9335   808.0273 C5            1 RES     
   28473 C5        -676.0676  -469.7917   806.9638 C5            1 RES     
   28474 C5        -674.5927  -469.4219   806.7743 C5            1 RES     
   28475 C5        -679.4261  -467.1440   803.9523 C5            1 RES     
   28476 C5        -678.2115  -466.5010   803.2343 C5            1 RES     
   28477 C5        -677.7327  -467.3081   802.0063 C5            1 RES     
   28478 C5        -678.8007  -467.4827   800.9098 C5            1 RES     
   28479 C5        -678.2993  -468.2813   799.6896 C5            1 RES     
   28480 C5        -677.2097  -467.5482   798.8832 C5            1 RES     
   28481 C5        -676.7080  -468.3463   797.6663 C5            1 RES     
   28482 C5        -677.7831  -468.5956   796.6075 C5            1 RES     
   28483 H6        -687.1507  -456.0509   804.8463 H6            1 RES     
   28484 H6        -686.9810  -454.6168   805.9093 H6            1 RES     
   28485 H6        -687.7560  -456.1122   806.5543 H6            1 RES     
   28486 H6        -684.7973  -455.8069   805.6917 H6            1 RES     
   28487 H6        -685.4124  -455.7956   807.3833 H6            1 RES     
   28488 H6        -684.4544  -457.9782   806.8569 H6            1 RES     
   28489 H6        -686.2202  -458.1165   807.1756 H6            1 RES     
   28490 H6        -684.9127  -458.0847   804.3587 H6            1 RES     
   28491 H6        -686.6725  -458.2760   804.7322 H6            1 RES     
   28492 H6        -684.4058  -460.1959   805.5820 H6            1 RES     
   28493 H6        -686.1495  -460.3107   806.0769 H6            1 RES     
   28494 H6        -686.9014  -460.5502   803.8185 H6            1 RES     
   28495 H6        -685.2416  -460.4628   803.1357 H6            1 RES     
   28496 H6        -686.2390  -462.5654   805.1770 H6            1 RES     
   28497 H6        -686.2952  -462.7870   803.4143 H6            1 RES     
   28498 H6        -683.5991  -462.0395   803.8625 H6            1 RES     
   28499 H6        -684.2218  -463.5956   803.2797 H6            1 RES     
   28500 H6        -683.8130  -462.8110   806.1453 H6            1 RES     
   28501 H6        -685.6294  -464.4953   805.7464 H6            1 RES     
   28502 H6        -684.4324  -465.6828   805.2201 H6            1 RES     
   28503 H6        -683.4410  -465.5880   807.5775 H6            1 RES     
   28504 H6        -684.4444  -464.1265   807.9026 H6            1 RES     
   28505 H6        -685.6346  -466.9231   807.4553 H6            1 RES     
   28506 H6        -686.5449  -465.3729   807.6140 H6            1 RES     
   28507 H6        -684.7241  -466.5596   809.7942 H6            1 RES     
   28508 H6        -685.4784  -464.9249   809.8251 H6            1 RES     
   28509 H6        -687.7538  -465.8586   809.7074 H6            1 RES     
   28510 H6        -686.8371  -466.4006   811.1542 H6            1 RES     
   28511 H6        -686.3741  -468.5985   810.0781 H6            1 RES     
   28512 H6        -687.3230  -468.0876   808.6175 H6            1 RES     
   28513 H6        -688.1408  -468.2553   810.2100 H6            1 RES     
   28514 H6        -681.7438  -463.0487   804.6243 H6            1 RES     
   28515 H6        -682.2765  -464.7393   804.3729 H6            1 RES     
   28516 H6        -680.0655  -464.6358   804.2759 H6            1 RES     
   28517 H6        -678.9414  -464.5434   805.5407 H6            1 RES     
   28518 H6        -680.9132  -466.8929   805.4538 H6            1 RES     
   28519 H6        -679.4549  -466.6480   807.4625 H6            1 RES     
   28520 H6        -679.3028  -468.2161   806.6079 H6            1 RES     
   28521 H6        -677.1264  -467.5773   805.6218 H6            1 RES     
   28522 H6        -677.2866  -465.9355   806.2840 H6            1 RES     
   28523 H6        -675.7473  -467.0705   807.6775 H6            1 RES     
   28524 H6        -677.2518  -466.8955   808.6104 H6            1 RES     
   28525 H6        -677.8282  -469.2975   808.1419 H6            1 RES     
   28526 H6        -676.2681  -469.0915   808.9988 H6            1 RES     
   28527 H6        -676.5901  -469.7265   805.9876 H6            1 RES     
   28528 H6        -676.1125  -470.8515   807.2956 H6            1 RES     
   28529 H6        -674.0447  -469.5003   807.7373 H6            1 RES     
   28530 H6        -674.1265  -470.1180   806.0453 H6            1 RES     
   28531 H6        -674.4839  -468.3942   806.3711 H6            1 RES     
   28532 H6        -680.2832  -467.0275   803.2556 H6            1 RES     
   28533 H6        -679.2642  -468.2347   804.0954 H6            1 RES     
   28534 H6        -677.3373  -466.4130   803.8951 H6            1 RES     
   28535 H6        -678.4664  -465.4714   802.9127 H6            1 RES     
   28536 H6        -676.8586  -466.7660   801.5903 H6            1 RES     
   28537 H6        -677.3896  -468.3114   802.3425 H6            1 RES     
   28538 H6        -679.1727  -466.4902   800.5753 H6            1 RES     
   28539 H6        -679.6530  -468.0521   801.3357 H6            1 RES     
   28540 H6        -677.9229  -469.2732   800.0238 H6            1 RES     
   28541 H6        -679.1771  -468.4467   799.0314 H6            1 RES     
   28542 H6        -676.3278  -467.3700   799.5311 H6            1 RES     
   28543 H6        -677.5978  -466.5638   798.5415 H6            1 RES     
   28544 H6        -675.8909  -467.7630   797.1882 H6            1 RES     
   28545 H6        -676.2866  -469.3190   798.0009 H6            1 RES     
   28546 H6        -678.5981  -469.2343   797.0034 H6            1 RES     
   28547 H6        -677.3298  -469.1243   795.7423 H6            1 RES     
   28548 H6        -678.2054  -467.6321   796.2519 H6            1 RES     
   28549 C0        -690.9349  -456.5264   809.4281 C0            1 RES     
   28550 C0        -691.5606  -456.1223   810.7635 C0            1 RES     
   28551 C0        -691.1334  -456.9195   811.7721 C0            1 RES     
   28552 S1        -691.7414  -456.4803   813.2684 S1            1 RES     
   28553 C0        -692.6186  -455.1748   812.6142 C0            1 RES     
   28554 C0        -692.3660  -455.0874   811.2346 C0            1 RES     
   28555 C0        -690.1395  -457.8113   811.2826 C0            1 RES     
   28556 C0        -689.9628  -457.5680   810.0035 C0            1 RES     
   28557 C0        -688.7839  -458.2405   809.4902 C0            1 RES     
   28558 C0        -688.1737  -458.9844   810.4888 C0            1 RES     
   28559 S1        -689.0064  -458.9268   812.0887 S1            1 RES     
   28560 H2        -692.7161  -454.2695   810.6417 H2            1 RES     
   28561 H2        -688.3421  -458.0775   808.5223 H2            1 RES     
   28562 N3        -695.3172  -452.6432   813.3200 N3            1 RES     
   28563 C0        -694.4810  -453.5043   812.6730 C0            1 RES     
   28564 C0        -693.4966  -454.2378   813.3654 C0            1 RES     
   28565 C0        -693.4250  -454.0501   814.7557 C0            1 RES     
   28566 N3        -692.5348  -454.6746   815.5721 N3            1 RES     
   28567 S1        -692.9047  -454.0429   817.0549 S1            1 RES     
   28568 N3        -694.1500  -453.0034   816.7444 N3            1 RES     
   28569 C0        -694.3022  -453.1383   815.4018 C0            1 RES     
   28570 C0        -695.2494  -452.4403   814.6642 C0            1 RES     
   28571 H4        -694.6080  -453.6414   811.6137 H4            1 RES     
   28572 C5        -694.5557  -447.5614   811.4142 C5            1 RES     
   28573 C5        -693.3702  -448.5273   811.4433 C5            1 RES     
   28574 C5        -693.7534  -449.9869   811.1412 C5            1 RES     
   28575 C5        -694.3522  -450.2039   809.7375 C5            1 RES     
   28576 C5        -694.6534  -451.6948   809.5066 C5            1 RES     
   28577 C5        -695.4465  -451.9479   808.2166 C5            1 RES     
   28578 C5        -695.8181  -453.4387   808.0329 C5            1 RES     
   28579 C5        -694.6746  -454.3436   807.4774 C5            1 RES     
   28580 C5        -694.1956  -455.5095   808.3963 C5            1 RES     
   28581 C5        -695.3433  -456.5042   808.7375 C5            1 RES     
   28582 C5        -695.0883  -457.2706   810.0489 C5            1 RES     
   28583 C5        -696.3994  -457.8316   810.6399 C5            1 RES     
   28584 C5        -696.1842  -458.3396   812.0770 C5            1 RES     
   28585 C5        -697.4984  -458.6310   812.8236 C5            1 RES     
   28586 C5        -698.3019  -459.7824   812.2294 C5            1 RES     
   28587 C5        -692.9525  -456.1677   807.7138 C5            1 RES     
   28588 C0        -691.9310  -457.1759   808.3680 C0            1 RES     
   28589 C5        -691.1504  -457.8195   807.1411 C5            1 RES     
   28590 C5        -691.6092  -459.2669   806.7603 C5            1 RES     
   28591 C5        -690.9001  -460.3887   807.5884 C5            1 RES     
   28592 C5        -689.4287  -460.6724   807.2048 C5            1 RES     
   28593 C5        -688.7029  -461.6458   808.1513 C5            1 RES     
   28594 C5        -689.1536  -463.1164   808.0624 C5            1 RES     
   28595 C5        -688.9172  -463.7916   806.6941 C5            1 RES     
   28596 C5        -687.4452  -463.8128   806.2690 C5            1 RES     
   28597 C5        -691.5936  -459.5461   805.2204 C5            1 RES     
   28598 C5        -690.3478  -459.0898   804.4178 C5            1 RES     
   28599 C5        -690.3413  -459.6027   802.9600 C5            1 RES     
   28600 C5        -691.5492  -459.1411   802.1226 C5            1 RES     
   28601 C5        -691.5176  -459.6550   800.6690 C5            1 RES     
   28602 C5        -690.3710  -459.0553   799.8320 C5            1 RES     
   28603 C5        -690.3384  -459.5698   798.3815 C5            1 RES     
   28604 C5        -691.5725  -459.1854   797.5640 C5            1 RES     
   28605 H6        -694.9923  -447.4971   810.3970 H6            1 RES     
   28606 H6        -694.2089  -446.5452   811.6992 H6            1 RES     
   28607 H6        -695.3377  -447.8827   812.1346 H6            1 RES     
   28608 H6        -692.5974  -448.1832   810.7235 H6            1 RES     
   28609 H6        -692.9303  -448.4950   812.4648 H6            1 RES     
   28610 H6        -692.8348  -450.6050   811.2413 H6            1 RES     
   28611 H6        -694.4833  -450.3282   811.9082 H6            1 RES     
   28612 H6        -693.6480  -449.8424   808.9567 H6            1 RES     
   28613 H6        -695.3007  -449.6317   809.6616 H6            1 RES     
   28614 H6        -693.7043  -452.2725   809.5065 H6            1 RES     
   28615 H6        -695.2996  -452.0319   810.3406 H6            1 RES     
   28616 H6        -696.3971  -451.3785   808.3178 H6            1 RES     
   28617 H6        -694.9155  -451.5655   807.3185 H6            1 RES     
   28618 H6        -696.2575  -453.8041   808.9829 H6            1 RES     
   28619 H6        -696.6307  -453.4750   807.2765 H6            1 RES     
   28620 H6        -693.8048  -453.6811   807.2677 H6            1 RES     
   28621 H6        -694.9838  -454.7577   806.4933 H6            1 RES     
   28622 H6        -693.9403  -454.9941   809.2951 H6            1 RES     
   28623 H6        -696.2496  -455.9060   808.9335 H6            1 RES     
   28624 H6        -695.6009  -457.1739   807.8887 H6            1 RES     
   28625 H6        -694.3141  -458.0558   809.9173 H6            1 RES     
   28626 H6        -694.7195  -456.5330   810.7922 H6            1 RES     
   28627 H6        -696.8206  -458.6235   809.9841 H6            1 RES     
   28628 H6        -697.1331  -456.9972   810.7013 H6            1 RES     
   28629 H6        -695.5227  -459.2317   812.0762 H6            1 RES     
   28630 H6        -695.6795  -457.5346   812.6571 H6            1 RES     
   28631 H6        -698.1285  -457.7137   812.8403 H6            1 RES     
   28632 H6        -697.2503  -458.8902   813.8758 H6            1 RES     
   28633 H6        -697.6988  -460.7142   812.2403 H6            1 RES     
   28634 H6        -698.6192  -459.5531   811.1918 H6            1 RES     
   28635 H6        -699.2144  -459.9424   812.8432 H6            1 RES     
   28636 H6        -692.3022  -455.3481   807.3347 H6            1 RES     
   28637 H6        -693.3955  -456.6698   806.8221 H6            1 RES     
   28638 H6        -691.3122  -457.1686   806.2563 H6            1 RES     
   28639 H6        -690.0556  -457.7704   807.2211 H6            1 RES     
   28640 H6        -692.6870  -459.3378   807.0344 H6            1 RES     
   28641 H6        -690.9637  -460.1119   808.6631 H6            1 RES     
   28642 H6        -691.4621  -461.3377   807.4542 H6            1 RES     
   28643 H6        -689.3581  -461.0773   806.1804 H6            1 RES     
   28644 H6        -688.8698  -459.7255   807.2263 H6            1 RES     
   28645 H6        -687.6152  -461.6034   807.9325 H6            1 RES     
   28646 H6        -688.8297  -461.2934   809.1947 H6            1 RES     
   28647 H6        -690.2304  -463.1896   808.3205 H6            1 RES     
   28648 H6        -688.5865  -463.6907   808.8277 H6            1 RES     
   28649 H6        -689.5199  -463.2994   805.9037 H6            1 RES     
   28650 H6        -689.2643  -464.8446   806.7705 H6            1 RES     
   28651 H6        -686.8250  -464.3204   807.0381 H6            1 RES     
   28652 H6        -687.3436  -464.3668   805.3118 H6            1 RES     
   28653 H6        -687.0592  -462.7862   806.1031 H6            1 RES     
   28654 H6        -692.4522  -458.9947   804.7817 H6            1 RES     
   28655 H6        -691.7845  -460.6304   805.0647 H6            1 RES     
   28656 H6        -689.4105  -459.4486   804.8666 H6            1 RES     
   28657 H6        -690.2890  -457.9830   804.4116 H6            1 RES     
   28658 H6        -689.4043  -459.2314   802.4962 H6            1 RES     
   28659 H6        -690.3071  -460.7145   802.9664 H6            1 RES     
   28660 H6        -691.6137  -458.0315   802.1218 H6            1 RES     
   28661 H6        -692.4736  -459.5465   802.5845 H6            1 RES     
   28662 H6        -691.4489  -460.7651   800.6686 H6            1 RES     
   28663 H6        -692.4837  -459.3666   800.2055 H6            1 RES     
   28664 H6        -689.3983  -459.3301   800.2877 H6            1 RES     
   28665 H6        -690.4542  -457.9465   799.8261 H6            1 RES     
   28666 H6        -689.4497  -459.1265   797.8815 H6            1 RES     
   28667 H6        -690.2212  -460.6751   798.3759 H6            1 RES     
   28668 H6        -692.4893  -459.6558   797.9729 H6            1 RES     
   28669 H6        -691.4465  -459.5429   796.5200 H6            1 RES     
   28670 H6        -691.6965  -458.0820   797.5478 H6            1 RES     
   28671 C0        -698.0377  -448.2083   815.4723 C0            1 RES     
   28672 C0        -698.3000  -448.0539   816.9708 C0            1 RES     
   28673 C0        -698.0247  -449.1977   817.6423 C0            1 RES     
   28674 S1        -698.2363  -449.0632   819.2973 S1            1 RES     
   28675 C0        -698.7130  -447.4319   819.1810 C0            1 RES     
   28676 C0        -698.6418  -447.0194   817.8395 C0            1 RES     
   28677 C0        -697.4622  -450.1490   816.7472 C0            1 RES     
   28678 C0        -697.3960  -449.6020   815.5543 C0            1 RES     
   28679 C0        -696.5914  -450.3979   814.6462 C0            1 RES     
   28680 C0        -696.1290  -451.5416   815.2795 C0            1 RES     
   28681 S1        -696.6624  -451.7230   816.9938 S1            1 RES     
   28682 H2        -698.7801  -445.9999   817.5485 H2            1 RES     
   28683 H2        -696.2609  -450.0900   813.6691 H2            1 RES     
   28684 N3        -700.2912  -444.5659   821.0477 N3            1 RES     
   28685 C0        -699.8877  -445.3987   820.0462 C0            1 RES     
   28686 C0        -699.1158  -446.5485   820.3081 C0            1 RES     
   28687 C0        -698.7918  -446.8039   821.6509 C0            1 RES     
   28688 N3        -698.0541  -447.8639   822.0767 N3            1 RES     
   28689 S1        -697.9816  -447.6165   823.7102 S1            1 RES     
   28690 N3        -698.8418  -446.2254   823.9397 N3            1 RES     
   28691 C0        -699.2168  -445.9130   822.6726 C0            1 RES     
   28692 C0        -699.9721  -444.7928   822.3513 C0            1 RES     
   28693 H4        -700.2001  -445.1783   819.0408 H4            1 RES     
   28694 C5        -698.1614  -439.5778   820.2604 C5            1 RES     
   28695 C5        -697.3720  -440.8024   819.7952 C5            1 RES     
   28696 C5        -698.2562  -441.9404   819.2549 C5            1 RES     
   28697 C5        -699.0837  -441.5595   818.0114 C5            1 RES     
   28698 C5        -699.8919  -442.7699   817.5126 C5            1 RES     
   28699 C5        -700.8966  -442.4007   816.4120 C5            1 RES     
   28700 C5        -701.7637  -443.6049   815.9737 C5            1 RES     
   28701 C5        -701.0752  -444.5909   814.9793 C5            1 RES     
   28702 C5        -700.8866  -446.0601   815.4684 C5            1 RES     
   28703 C5        -702.2395  -446.7463   815.8173 C5            1 RES     
   28704 C5        -702.0721  -447.9022   816.8213 C5            1 RES     
   28705 C5        -703.3985  -448.2192   817.5446 C5            1 RES     
   28706 C5        -703.1648  -449.1646   818.7368 C5            1 RES     
   28707 C5        -704.3828  -449.2798   819.6710 C5            1 RES     
   28708 C5        -705.5979  -449.9323   819.0210 C5            1 RES     
   28709 C5        -700.0412  -446.8115   814.3890 C5            1 RES     
   28710 C0        -699.3311  -448.2116   814.5422 C0            1 RES     
   28711 C5        -698.9885  -448.6603   813.0556 C5            1 RES     
   28712 C5        -699.9504  -449.7426   812.4607 C5            1 RES     
   28713 C5        -699.5451  -451.2097   812.8223 C5            1 RES     
   28714 C5        -698.3205  -451.7705   812.0617 C5            1 RES     
   28715 C5        -697.8338  -453.1412   812.5661 C5            1 RES     
   28716 C5        -698.7548  -454.3324   812.2401 C5            1 RES     
   28717 C5        -698.9501  -454.6156   810.7349 C5            1 RES     
   28718 C5        -697.6437  -454.9245   809.9962 C5            1 RES     
   28719 C5        -700.2444  -449.5516   810.9354 C5            1 RES     
   28720 C5        -699.0433  -449.2500   810.0022 C5            1 RES     
   28721 C5        -699.4119  -449.2940   808.5019 C5            1 RES     
   28722 C5        -700.5029  -448.2875   808.0898 C5            1 RES     
   28723 C5        -700.8477  -448.3406   806.5877 C5            1 RES     
   28724 C5        -699.6965  -447.8701   805.6777 C5            1 RES     
   28725 C5        -700.0402  -447.9250   804.1783 C5            1 RES     
   28726 C5        -701.1785  -446.9874   803.7727 C5            1 RES     
   28727 H6        -698.6899  -439.0986   819.4115 H6            1 RES     
   28728 H6        -697.4607  -438.8300   820.6891 H6            1 RES     
   28729 H6        -698.8966  -439.8624   821.0429 H6            1 RES     
   28730 H6        -696.6379  -440.4947   819.0207 H6            1 RES     
   28731 H6        -696.8077  -441.1956   820.6699 H6            1 RES     
   28732 H6        -697.5905  -442.7928   818.9983 H6            1 RES     
   28733 H6        -698.9429  -442.2715   820.0651 H6            1 RES     
   28734 H6        -698.4163  -441.1987   817.1986 H6            1 RES     
   28735 H6        -699.7892  -440.7477   818.2869 H6            1 RES     
   28736 H6        -699.1983  -443.5647   817.1638 H6            1 RES     
   28737 H6        -700.4897  -443.1403   818.3683 H6            1 RES     
   28738 H6        -701.5802  -441.6426   816.8548 H6            1 RES     
   28739 H6        -700.4003  -441.9377   815.5321 H6            1 RES     
   28740 H6        -702.1618  -444.0933   816.8860 H6            1 RES     
   28741 H6        -702.6399  -443.1882   815.4328 H6            1 RES     
   28742 H6        -700.0734  -444.1687   814.7398 H6            1 RES     
   28743 H6        -701.6392  -444.5945   814.0214 H6            1 RES     
   28744 H6        -700.3513  -445.9238   816.3813 H6            1 RES     
   28745 H6        -702.8589  -446.0021   816.3465 H6            1 RES     
   28746 H6        -702.8211  -447.0375   814.9160 H6            1 RES     
   28747 H6        -701.6290  -448.7991   816.3391 H6            1 RES     
   28748 H6        -701.3791  -447.5493   817.6136 H6            1 RES     
   28749 H6        -704.1462  -448.6326   816.8343 H6            1 RES     
   28750 H6        -703.7973  -447.2683   817.9629 H6            1 RES     
   28751 H6        -702.8440  -450.1657   818.3787 H6            1 RES     
   28752 H6        -702.3456  -448.7405   819.3599 H6            1 RES     
   28753 H6        -704.6638  -448.2691   820.0430 H6            1 RES     
   28754 H6        -704.0899  -449.8943   820.5499 H6            1 RES     
   28755 H6        -705.3430  -450.9567   818.6779 H6            1 RES     
   28756 H6        -705.9632  -449.3299   818.1647 H6            1 RES     
   28757 H6        -706.4161  -450.0015   819.7698 H6            1 RES     
   28758 H6        -699.2157  -446.1344   814.0754 H6            1 RES     
   28759 H6        -700.7461  -446.8849   813.5281 H6            1 RES     
   28760 H6        -699.0475  -447.7610   812.4071 H6            1 RES     
   28761 H6        -697.9398  -448.9467   812.8961 H6            1 RES     
   28762 H6        -700.9409  -449.5846   812.9462 H6            1 RES     
   28763 H6        -699.3619  -451.2533   813.9178 H6            1 RES     
   28764 H6        -700.4031  -451.8797   812.6003 H6            1 RES     
   28765 H6        -698.5326  -451.8606   810.9823 H6            1 RES     
   28766 H6        -697.4818  -451.0685   812.1773 H6            1 RES     
   28767 H6        -696.8357  -453.3443   812.1241 H6            1 RES     
   28768 H6        -697.6888  -453.0888   813.6640 H6            1 RES     
   28769 H6        -699.7473  -454.1721   812.7097 H6            1 RES     
   28770 H6        -698.3090  -455.2408   812.7021 H6            1 RES     
   28771 H6        -699.4598  -453.7650   810.2380 H6            1 RES     
   28772 H6        -699.6128  -455.5028   810.6395 H6            1 RES     
   28773 H6        -697.1257  -455.7879   810.4655 H6            1 RES     
   28774 H6        -697.8670  -455.1794   808.9386 H6            1 RES     
   28775 H6        -696.9661  -454.0463   809.9921 H6            1 RES     
   28776 H6        -700.9238  -448.6779   810.8426 H6            1 RES     
   28777 H6        -700.8041  -450.4433   810.5778 H6            1 RES     
   28778 H6        -698.2252  -449.9728   810.1317 H6            1 RES     
   28779 H6        -698.6220  -448.2532   810.2416 H6            1 RES     
   28780 H6        -698.4796  -449.0824   807.9389 H6            1 RES     
   28781 H6        -699.7481  -450.3217   808.2407 H6            1 RES     
   28782 H6        -700.1949  -447.2550   808.3627 H6            1 RES     
   28783 H6        -701.4350  -448.5333   808.6402 H6            1 RES     
   28784 H6        -701.1522  -449.3745   806.3126 H6            1 RES     
   28785 H6        -701.7182  -447.6698   806.4342 H6            1 RES     
   28786 H6        -698.8164  -448.5281   805.8255 H6            1 RES     
   28787 H6        -699.4069  -446.8316   805.9499 H6            1 RES     
   28788 H6        -699.1341  -447.6234   803.6086 H6            1 RES     
   28789 H6        -700.2986  -448.9665   803.8884 H6            1 RES     
   28790 H6        -702.1324  -447.2792   804.2561 H6            1 RES     
   28791 H6        -701.3259  -447.0440   802.6733 H6            1 RES     
   28792 H6        -700.9302  -445.9394   804.0430 H6            1 RES     
   28793 C0        -701.0553  -440.3775   824.7322 C0            1 RES     
   28794 C0        -701.0386  -440.6011   826.2447 C0            1 RES     
   28795 C0        -701.0673  -441.9204   826.5507 C0            1 RES     
   28796 S1        -700.9880  -442.2223   828.1952 S1            1 RES     
   28797 C0        -700.9076  -440.5633   828.5736 C0            1 RES     
   28798 C0        -700.8923  -439.8137   827.3850 C0            1 RES     
   28799 C0        -700.9838  -442.6861   825.3552 C0            1 RES     
   28800 C0        -700.9077  -441.8557   824.3397 C0            1 RES     
   28801 C0        -700.5486  -442.5436   823.1135 C0            1 RES     
   28802 C0        -700.4081  -443.9042   823.3413 C0            1 RES     
   28803 S1        -700.7255  -444.4216   825.0407 S1            1 RES     
   28804 H2        -700.7238  -438.7579   827.3790 H2            1 RES     
   28805 H2        -700.2751  -442.0692   822.1868 H2            1 RES     
   28806 N3        -701.1668  -438.0463   831.3642 N3            1 RES     
   28807 C0        -701.2072  -438.6279   830.1315 C0            1 RES     
   28808 C0        -700.8320  -439.9725   829.9367 C0            1 RES     
   28809 C0        -700.4263  -440.6899   831.0743 C0            1 RES     
   28810 N3        -700.0303  -441.9907   831.0633 N3            1 RES     
   28811 S1        -699.6515  -442.2630   832.6498 S1            1 RES     
   28812 N3        -699.9600  -440.8169   833.3857 N3            1 RES     
   28813 C0        -700.3839  -440.0552   832.3445 C0            1 RES     
   28814 C0        -700.7617  -438.7250   832.4724 C0            1 RES     
   28815 H4        -701.5665  -438.0444   829.3023 H4            1 RES     
   28816 C5        -697.6349  -433.8560   831.3047 C5            1 RES     
   28817 C5        -697.3702  -435.0611   830.4009 C5            1 RES     
   28818 C5        -698.6485  -435.6944   829.8232 C5            1 RES     
   28819 C5        -699.4683  -434.7497   828.9223 C5            1 RES     
   28820 C5        -700.6938  -435.4827   828.3498 C5            1 RES     
   28821 C5        -701.6629  -434.5407   827.6213 C5            1 RES     
   28822 C5        -702.9329  -435.2692   827.1209 C5            1 RES     
   28823 C5        -702.7573  -436.0730   825.7950 C5            1 RES     
   28824 C5        -703.0004  -437.6119   825.8719 C5            1 RES     
   28825 C5        -704.4412  -437.9607   826.3465 C5            1 RES     
   28826 C5        -704.5280  -439.3580   826.9884 C5            1 RES     
   28827 C5        -705.7691  -439.4864   827.8974 C5            1 RES     
   28828 C5        -705.6977  -440.7650   828.7517 C5            1 RES     
   28829 C5        -706.7412  -440.8012   829.8827 C5            1 RES     
   28830 C5        -708.1823  -440.8657   829.3893 C5            1 RES     
   28831 C5        -702.6125  -438.2205   824.4850 C5            1 RES     
   28832 C0        -702.3933  -439.7446   824.1430 C0            1 RES     
   28833 C5        -702.4311  -439.8160   822.5548 C5            1 RES     
   28834 C5        -703.7710  -440.3606   821.9560 C5            1 RES     
   28835 C5        -703.8292  -441.9212   821.8641 C5            1 RES     
   28836 C5        -702.9795  -442.5556   820.7379 C5            1 RES     
   28837 C5        -702.9097  -444.0928   820.7851 C5            1 RES     
   28838 C5        -704.2100  -444.8271   820.4061 C5            1 RES     
   28839 C5        -704.6972  -444.5905   818.9602 C5            1 RES     
   28840 C5        -703.6847  -445.0240   817.8950 C5            1 RES     
   28841 C5        -704.1957  -439.6570   820.6241 C5            1 RES     
   28842 C5        -703.1060  -439.4461   819.5412 C5            1 RES     
   28843 C5        -703.6748  -438.9436   818.1949 C5            1 RES     
   28844 C5        -704.4163  -437.5963   818.2859 C5            1 RES     
   28845 C5        -704.9662  -437.1084   816.9304 C5            1 RES     
   28846 C5        -703.8636  -436.7357   815.9202 C5            1 RES     
   28847 C5        -704.4128  -436.2504   814.5665 C5            1 RES     
   28848 C5        -705.2202  -434.9548   814.6583 C5            1 RES     
   28849 H6        -698.0879  -433.0211   830.7327 H6            1 RES     
   28850 H6        -696.6729  -433.4950   831.7270 H6            1 RES     
   28851 H6        -698.3054  -434.1384   832.1440 H6            1 RES     
   28852 H6        -696.6918  -434.7596   829.5747 H6            1 RES     
   28853 H6        -696.8516  -435.8350   831.0092 H6            1 RES     
   28854 H6        -698.3464  -436.5856   829.2314 H6            1 RES     
   28855 H6        -699.2853  -436.0410   830.6669 H6            1 RES     
   28856 H6        -698.8399  -434.3698   828.0874 H6            1 RES     
   28857 H6        -699.8184  -433.8900   829.5314 H6            1 RES     
   28858 H6        -700.3596  -436.3021   827.6781 H6            1 RES     
   28859 H6        -701.2545  -435.9036   829.2074 H6            1 RES     
   28860 H6        -701.9868  -433.7852   828.3713 H6            1 RES     
   28861 H6        -701.1696  -433.9996   826.7854 H6            1 RES     
   28862 H6        -703.3384  -435.8706   827.9594 H6            1 RES     
   28863 H6        -703.6877  -434.4837   826.9039 H6            1 RES     
   28864 H6        -701.7162  -435.8987   825.4413 H6            1 RES     
   28865 H6        -703.4189  -435.6373   825.0151 H6            1 RES     
   28866 H6        -702.3279  -437.9050   826.6467 H6            1 RES     
   28867 H6        -704.6979  -437.2612   827.1604 H6            1 RES     
   28868 H6        -705.2068  -437.7996   825.5569 H6            1 RES     
   28869 H6        -704.4799  -440.1612   826.2230 H6            1 RES     
   28870 H6        -703.6533  -439.4622   827.6642 H6            1 RES     
   28871 H6        -706.7034  -439.4461   827.2974 H6            1 RES     
   28872 H6        -705.7669  -438.6276   828.6050 H6            1 RES     
   28873 H6        -705.7809  -441.6654   828.1069 H6            1 RES     
   28874 H6        -704.7054  -440.7902   829.2555 H6            1 RES     
   28875 H6        -706.6157  -439.9074   830.5339 H6            1 RES     
   28876 H6        -706.5487  -441.7024   830.5046 H6            1 RES     
   28877 H6        -708.3327  -441.7732   828.7680 H6            1 RES     
   28878 H6        -708.4432  -439.9618   828.8022 H6            1 RES     
   28879 H6        -708.8636  -440.9180   830.2657 H6            1 RES     
   28880 H6        -701.6616  -437.7420   824.1605 H6            1 RES     
   28881 H6        -703.4151  -437.8374   823.8123 H6            1 RES     
   28882 H6        -702.2786  -438.7878   822.1648 H6            1 RES     
   28883 H6        -701.5702  -440.3259   822.1008 H6            1 RES     
   28884 H6        -704.5744  -440.0798   822.6752 H6            1 RES     
   28885 H6        -703.5191  -442.3331   822.8489 H6            1 RES     
   28886 H6        -704.8831  -442.2274   821.6909 H6            1 RES     
   28887 H6        -703.3587  -442.2624   819.7436 H6            1 RES     
   28888 H6        -701.9480  -442.1836   820.8222 H6            1 RES     
   28889 H6        -702.1081  -444.4297   820.0948 H6            1 RES     
   28890 H6        -702.6032  -444.4069   821.8032 H6            1 RES     
   28891 H6        -705.0168  -444.5389   821.1113 H6            1 RES     
   28892 H6        -704.0308  -445.9179   820.5305 H6            1 RES     
   28893 H6        -704.9601  -443.5244   818.8036 H6            1 RES     
   28894 H6        -705.6232  -445.1871   818.8120 H6            1 RES     
   28895 H6        -703.4222  -446.0961   818.0206 H6            1 RES     
   28896 H6        -704.1258  -444.8847   816.8854 H6            1 RES     
   28897 H6        -702.7617  -444.4107   817.9436 H6            1 RES     
   28898 H6        -704.5525  -438.6403   820.8934 H6            1 RES     
   28899 H6        -705.0640  -440.2100   820.2037 H6            1 RES     
   28900 H6        -702.5646  -440.3746   819.3106 H6            1 RES     
   28901 H6        -702.3486  -438.7236   819.9056 H6            1 RES     
   28902 H6        -702.8138  -438.8476   817.5017 H6            1 RES     
   28903 H6        -704.3661  -439.7119   817.7835 H6            1 RES     
   28904 H6        -703.7480  -436.8191   818.7158 H6            1 RES     
   28905 H6        -705.2901  -437.7199   818.9591 H6            1 RES     
   28906 H6        -705.6319  -437.8871   816.4973 H6            1 RES     
   28907 H6        -705.5771  -436.2056   817.1380 H6            1 RES     
   28908 H6        -703.2403  -437.6278   815.7081 H6            1 RES     
   28909 H6        -703.2107  -435.9476   816.3550 H6            1 RES     
   28910 H6        -703.5473  -436.0629   813.8940 H6            1 RES     
   28911 H6        -705.0401  -437.0449   814.1073 H6            1 RES     
   28912 H6        -706.1392  -435.0947   815.2623 H6            1 RES     
   28913 H6        -705.5307  -434.6434   813.6384 H6            1 RES     
   28914 H6        -704.6029  -434.1459   815.1028 H6            1 RES     
   28915 C0        -699.9728  -435.0817   835.9996 C0            1 RES     
   28916 C0        -699.8195  -435.7334   837.3743 C0            1 RES     
   28917 C0        -700.2412  -437.0207   837.3621 C0            1 RES     
   28918 S1        -700.0369  -437.8001   838.8293 S1            1 RES     
   28919 C0        -699.3581  -436.4172   839.5565 C0            1 RES     
   28920 C0        -699.2617  -435.3886   838.6038 C0            1 RES     
   28921 C0        -700.5850  -437.3941   836.0336 C0            1 RES     
   28922 C0        -700.3808  -436.3594   835.2499 C0            1 RES     
   28923 C0        -700.4461  -436.7303   833.8485 C0            1 RES     
   28924 C0        -700.7347  -438.0799   833.7146 C0            1 RES     
   28925 S1        -700.9642  -438.9609   835.2727 S1            1 RES     
   28926 H2        -698.7550  -434.4693   838.8068 H2            1 RES     
   28927 H2        -700.1634  -436.1024   833.0212 H2            1 RES     
   28928 N3        -698.3733  -434.8606   842.8423 N3            1 RES     
   28929 C0        -698.7768  -435.0200   841.5496 C0            1 RES     
   28930 C0        -698.9005  -436.2974   840.9669 C0            1 RES     
   28931 C0        -698.6006  -437.4000   841.7839 C0            1 RES     
   28932 N3        -698.6645  -438.6970   841.3805 N3            1 RES     
   28933 S1        -698.1791  -439.5167   842.7323 S1            1 RES     
   28934 N3        -697.8837  -438.3236   843.8355 N3            1 RES     
   28935 C0        -698.1722  -437.2035   843.1241 C0            1 RES     
   28936 C0        -698.0653  -435.9190   843.6408 C0            1 RES     
   28937 H4        -699.0346  -434.1430   840.9826 H4            1 RES     
   28938 C5        -693.6962  -432.0066   842.9691 C5            1 RES     
   28939 C5        -693.9760  -432.9179   841.7731 C5            1 RES     
   28940 C5        -695.4596  -432.9682   841.3667 C5            1 RES     
   28941 C5        -696.0371  -431.6106   840.9199 C5            1 RES     
   28942 C5        -697.5039  -431.7684   840.4833 C5            1 RES     
   28943 C5        -698.1973  -430.4218   840.2325 C5            1 RES     
   28944 C5        -699.6940  -430.5841   839.8751 C5            1 RES     
   28945 C5        -699.9829  -430.9800   838.3936 C5            1 RES     
   28946 C5        -700.7096  -432.3407   838.1618 C5            1 RES     
   28947 C5        -702.1029  -432.3932   838.8537 C5            1 RES     
   28948 C5        -702.5576  -433.8337   839.1542 C5            1 RES     
   28949 C5        -703.6306  -433.8681   840.2636 C5            1 RES     
   28950 C5        -703.8686  -435.3067   840.7569 C5            1 RES     
   28951 C5        -704.6954  -435.3774   842.0534 C5            1 RES     
   28952 C5        -706.1303  -434.8867   841.8962 C5            1 RES     
   28953 C5        -700.7442  -432.6001   836.6204 C5            1 RES     
   28954 C0        -701.0936  -433.9546   835.8916 C0            1 RES     
   28955 C5        -701.3752  -433.5445   834.3811 C5            1 RES     
   28956 C5        -702.8898  -433.4903   833.9893 C5            1 RES     
   28957 C5        -703.4749  -434.8733   833.5511 C5            1 RES     
   28958 C5        -703.0508  -435.3624   832.1462 C5            1 RES     
   28959 C5        -703.4892  -436.8008   831.8162 C5            1 RES     
   28960 C5        -704.9990  -436.9954   831.5790 C5            1 RES     
   28961 C5        -705.5778  -436.2191   830.3764 C5            1 RES     
   28962 C5        -704.9264  -436.5883   829.0395 C5            1 RES     
   28963 C5        -703.2392  -432.3381   832.9895 C5            1 RES     
   28964 C5        -702.3045  -432.1348   831.7691 C5            1 RES     
   28965 C5        -702.8571  -431.1216   830.7411 C5            1 RES     
   28966 C5        -703.0888  -429.7084   831.3088 C5            1 RES     
   28967 C5        -703.6299  -428.7111   830.2645 C5            1 RES     
   28968 C5        -702.6194  -428.3850   829.1476 C5            1 RES     
   28969 C5        -703.1604  -427.3909   828.1042 C5            1 RES     
   28970 C5        -703.4707  -426.0066   828.6755 C5            1 RES     
   28971 H6        -693.9219  -430.9487   842.7252 H6            1 RES     
   28972 H6        -692.6198  -432.0707   843.2362 H6            1 RES     
   28973 H6        -694.2977  -432.3217   843.8481 H6            1 RES     
   28974 H6        -693.3589  -432.5914   840.9093 H6            1 RES     
   28975 H6        -693.6638  -433.9491   842.0510 H6            1 RES     
   28976 H6        -695.5565  -433.6944   840.5308 H6            1 RES     
   28977 H6        -696.0504  -433.3528   842.2273 H6            1 RES     
   28978 H6        -695.4419  -431.1958   840.0773 H6            1 RES     
   28979 H6        -695.9929  -430.9047   841.7757 H6            1 RES     
   28980 H6        -697.5582  -432.4147   839.5812 H6            1 RES     
   28981 H6        -698.0463  -432.2464   841.3225 H6            1 RES     
   28982 H6        -698.1436  -429.8597   841.1913 H6            1 RES     
   28983 H6        -697.6748  -429.8214   839.4571 H6            1 RES     
   28984 H6        -700.1543  -431.2651   840.6191 H6            1 RES     
   28985 H6        -700.1679  -429.5905   840.0234 H6            1 RES     
   28986 H6        -699.0035  -431.0100   837.8653 H6            1 RES     
   28987 H6        -700.5648  -430.1676   837.9067 H6            1 RES     
   28988 H6        -700.0709  -433.0244   838.6747 H6            1 RES     
   28989 H6        -701.9960  -431.9199   839.8448 H6            1 RES     
   28990 H6        -702.8743  -431.7997   838.3170 H6            1 RES     
   28991 H6        -702.8866  -434.3573   838.2318 H6            1 RES     
   28992 H6        -701.6816  -434.3727   839.5720 H6            1 RES     
   28993 H6        -704.5728  -433.3930   839.9159 H6            1 RES     
   28994 H6        -703.2442  -433.2908   841.1329 H6            1 RES     
   28995 H6        -704.3354  -435.9175   839.9554 H6            1 RES     
   28996 H6        -702.8806  -435.7562   841.0040 H6            1 RES     
   28997 H6        -704.1903  -434.7863   842.8498 H6            1 RES     
   28998 H6        -704.7277  -436.4371   842.3877 H6            1 RES     
   28999 H6        -706.6588  -435.4920   841.1305 H6            1 RES     
   29000 H6        -706.1559  -433.8154   841.6108 H6            1 RES     
   29001 H6        -706.6603  -434.9994   842.8664 H6            1 RES     
   29002 H6        -699.7439  -432.3352   836.2110 H6            1 RES     
   29003 H6        -701.4601  -431.8275   836.2543 H6            1 RES     
   29004 H6        -700.9463  -432.5335   834.2180 H6            1 RES     
   29005 H6        -700.8050  -434.1198   833.6387 H6            1 RES     
   29006 H6        -703.4452  -433.2182   834.9163 H6            1 RES     
   29007 H6        -703.1843  -435.6251   834.3165 H6            1 RES     
   29008 H6        -704.5839  -434.8061   833.5531 H6            1 RES     
   29009 H6        -703.4465  -434.6969   831.3596 H6            1 RES     
   29010 H6        -701.9532  -435.3373   832.0805 H6            1 RES     
   29011 H6        -702.9500  -437.1321   830.9040 H6            1 RES     
   29012 H6        -703.1648  -437.4720   832.6368 H6            1 RES     
   29013 H6        -705.5571  -436.7115   832.4952 H6            1 RES     
   29014 H6        -705.1765  -438.0791   831.4017 H6            1 RES     
   29015 H6        -705.4910  -435.1249   830.5365 H6            1 RES     
   29016 H6        -706.6603  -436.4605   830.3055 H6            1 RES     
   29017 H6        -705.0198  -437.6787   828.8488 H6            1 RES     
   29018 H6        -705.4332  -436.0415   828.2165 H6            1 RES     
   29019 H6        -703.8550  -436.3015   829.0208 H6            1 RES     
   29020 H6        -703.1968  -431.3873   833.5621 H6            1 RES     
   29021 H6        -704.2916  -432.4762   832.6583 H6            1 RES     
   29022 H6        -702.1399  -433.0682   831.2121 H6            1 RES     
   29023 H6        -701.3071  -431.7940   832.1118 H6            1 RES     
   29024 H6        -702.1193  -431.0731   829.9139 H6            1 RES     
   29025 H6        -703.8147  -431.5090   830.3282 H6            1 RES     
   29026 H6        -702.1472  -429.3118   831.7465 H6            1 RES     
   29027 H6        -703.8506  -429.7726   832.1136 H6            1 RES     
   29028 H6        -704.5701  -429.1090   829.8229 H6            1 RES     
   29029 H6        -703.8711  -427.7750   830.8093 H6            1 RES     
   29030 H6        -702.3638  -429.3135   828.5982 H6            1 RES     
   29031 H6        -701.6878  -427.9756   829.5958 H6            1 RES     
   29032 H6        -702.3851  -427.2661   827.3169 H6            1 RES     
   29033 H6        -704.0736  -427.8062   827.6256 H6            1 RES     
   29034 H6        -704.2897  -426.0528   829.4212 H6            1 RES     
   29035 H6        -703.8000  -425.3362   827.8535 H6            1 RES     
   29036 H6        -702.5641  -425.5709   829.1458 H6            1 RES     
   29037 C0        -695.6257  -433.8432   847.6504 C0            1 RES     
   29038 C0        -695.5061  -434.8842   848.7640 C0            1 RES     
   29039 C0        -696.3285  -435.9386   848.5468 C0            1 RES     
   29040 S1        -696.1909  -437.1377   849.7065 S1            1 RES     
   29041 C0        -694.9968  -436.2775   850.5645 C0            1 RES     
   29042 C0        -694.6990  -435.0857   849.8819 C0            1 RES     
   29043 C0        -696.9595  -435.7944   847.2804 C0            1 RES     
   29044 C0        -696.5354  -434.6768   846.7347 C0            1 RES     
   29045 C0        -696.9159  -434.5874   845.3373 C0            1 RES     
   29046 C0        -697.6518  -435.7006   844.9604 C0            1 RES     
   29047 S1        -697.9399  -436.8971   846.2801 S1            1 RES     
   29048 H2        -693.8927  -434.4475   850.1744 H2            1 RES     
   29049 H2        -696.5598  -433.8509   844.6376 H2            1 RES     
   29050 N3        -693.1007  -436.0933   853.8142 N3            1 RES     
   29051 C0        -693.7113  -435.7473   852.6451 C0            1 RES     
   29052 C0        -694.3323  -436.7094   851.8234 C0            1 RES     
   29053 C0        -694.3040  -438.0406   852.2711 C0            1 RES     
   29054 N3        -694.8507  -439.0900   851.6010 N3            1 RES     
   29055 S1        -694.4804  -440.3712   852.5789 S1            1 RES     
   29056 N3        -693.6542  -439.6866   853.8346 N3            1 RES     
   29057 C0        -693.6513  -438.3736   853.4882 C0            1 RES     
   29058 C0        -693.0528  -437.3809   854.2529 C0            1 RES     
   29059 H4        -693.7402  -434.7073   852.3716 H4            1 RES     
   29060 C5        -687.7728  -434.8372   853.5471 C5            1 RES     
   29061 C5        -688.5039  -435.2414   852.2660 C5            1 RES     
   29062 C5        -689.9615  -434.7513   852.2040 C5            1 RES     
   29063 C5        -690.1124  -433.2174   852.2285 C5            1 RES     
   29064 C5        -691.5942  -432.8214   852.1091 C5            1 RES     
   29065 C5        -691.8293  -431.3223   852.3426 C5            1 RES     
   29066 C5        -693.3294  -430.9451   852.3038 C5            1 RES     
   29067 C5        -693.9381  -430.7923   850.8751 C5            1 RES     
   29068 C5        -695.1000  -431.7636   850.5017 C5            1 RES     
   29069 C5        -696.3202  -431.6223   851.4578 C5            1 RES     
   29070 C5        -697.1803  -432.8989   851.5080 C5            1 RES     
   29071 C5        -698.0371  -432.9533   852.7910 C5            1 RES     
   29072 C5        -698.6674  -434.3456   852.9753 C5            1 RES     
   29073 C5        -699.2804  -434.5570   854.3714 C5            1 RES     
   29074 C5        -700.4781  -433.6591   854.6605 C5            1 RES     
   29075 C5        -695.4346  -431.5399   848.9909 C5            1 RES     
   29076 C0        -696.3122  -432.4664   848.0639 C0            1 RES     
   29077 C5        -696.6506  -431.5704   846.7944 C5            1 RES     
   29078 C5        -698.1004  -430.9803   846.7777 C5            1 RES     
   29079 C5        -699.1667  -431.9515   846.1719 C5            1 RES     
   29080 C5        -699.1304  -432.1067   844.6333 C5            1 RES     
   29081 C5        -700.0630  -433.2014   844.0840 C5            1 RES     
   29082 C5        -701.5692  -432.8853   844.1543 C5            1 RES     
   29083 C5        -702.0201  -431.6611   843.3284 C5            1 RES     
   29084 C5        -701.7224  -431.7905   841.8309 C5            1 RES     
   29085 C5        -698.1841  -429.5364   846.1798 C5            1 RES     
   29086 C5        -697.4158  -429.2563   844.8623 C5            1 RES     
   29087 C5        -697.7392  -427.8741   844.2510 C5            1 RES     
   29088 C5        -697.4067  -426.6835   845.1703 C5            1 RES     
   29089 C5        -697.7268  -425.3143   844.5372 C5            1 RES     
   29090 C5        -696.8326  -424.9735   843.3293 C5            1 RES     
   29091 C5        -697.1536  -423.6075   842.6964 C5            1 RES     
   29092 C5        -696.9035  -422.4222   843.6300 C5            1 RES     
   29093 H6        -687.6664  -433.7355   853.6142 H6            1 RES     
   29094 H6        -686.7525  -435.2766   853.5422 H6            1 RES     
   29095 H6        -688.3153  -435.2132   854.4404 H6            1 RES     
   29096 H6        -687.9410  -434.8637   851.3861 H6            1 RES     
   29097 H6        -688.5160  -436.3529   852.2176 H6            1 RES     
   29098 H6        -690.4102  -435.1432   851.2655 H6            1 RES     
   29099 H6        -690.5197  -435.1885   853.0613 H6            1 RES     
   29100 H6        -689.5376  -432.7591   851.3944 H6            1 RES     
   29101 H6        -689.7169  -432.8351   853.1930 H6            1 RES     
   29102 H6        -691.9858  -433.1328   851.1171 H6            1 RES     
   29103 H6        -692.1412  -433.3513   852.9135 H6            1 RES     
   29104 H6        -691.4582  -431.1042   853.3687 H6            1 RES     
   29105 H6        -691.2513  -430.6936   851.6316 H6            1 RES     
   29106 H6        -693.8805  -431.6558   852.9522 H6            1 RES     
   29107 H6        -693.4209  -429.9472   852.7829 H6            1 RES     
   29108 H6        -693.1085  -430.9405   850.1477 H6            1 RES     
   29109 H6        -694.2795  -429.7437   850.7353 H6            1 RES     
   29110 H6        -694.6593  -432.7182   850.6833 H6            1 RES     
   29111 H6        -695.9245  -431.5099   852.4817 H6            1 RES     
   29112 H6        -696.9181  -430.7059   851.2626 H6            1 RES     
   29113 H6        -697.7904  -433.0150   850.5873 H6            1 RES     
   29114 H6        -696.4834  -433.7601   851.5800 H6            1 RES     
   29115 H6        -698.8071  -432.1523   852.7854 H6            1 RES     
   29116 H6        -697.3632  -432.7887   853.6611 H6            1 RES     
   29117 H6        -699.4180  -434.5380   852.1797 H6            1 RES     
   29118 H6        -697.8603  -435.1065   852.8815 H6            1 RES     
   29119 H6        -698.5014  -434.3919   855.1490 H6            1 RES     
   29120 H6        -699.6154  -435.6143   854.4474 H6            1 RES     
   29121 H6        -701.2794  -433.8396   853.9139 H6            1 RES     
   29122 H6        -700.1865  -432.5892   854.6465 H6            1 RES     
   29123 H6        -700.8739  -433.8969   855.6714 H6            1 RES     
   29124 H6        -694.4709  -431.4593   848.4402 H6            1 RES     
   29125 H6        -695.8972  -430.5254   848.9864 H6            1 RES     
   29126 H6        -695.9378  -430.7192   846.7796 H6            1 RES     
   29127 H6        -696.4137  -432.0393   845.8293 H6            1 RES     
   29128 H6        -698.3982  -430.8466   847.8431 H6            1 RES     
   29129 H6        -699.0378  -432.9443   846.6549 H6            1 RES     
   29130 H6        -700.1786  -431.5788   846.4394 H6            1 RES     
   29131 H6        -699.3889  -431.1569   844.1338 H6            1 RES     
   29132 H6        -698.1074  -432.3731   844.3297 H6            1 RES     
   29133 H6        -699.7979  -433.3889   843.0223 H6            1 RES     
   29134 H6        -699.8681  -434.1462   844.6303 H6            1 RES     
   29135 H6        -701.8672  -432.7370   845.2129 H6            1 RES     
   29136 H6        -702.1193  -433.7739   843.7734 H6            1 RES     
   29137 H6        -701.5536  -430.7324   843.7158 H6            1 RES     
   29138 H6        -703.1200  -431.5567   843.4488 H6            1 RES     
   29139 H6        -702.1982  -432.7050   841.4169 H6            1 RES     
   29140 H6        -702.1291  -430.9074   841.2943 H6            1 RES     
   29141 H6        -700.6305  -431.8242   841.6388 H6            1 RES     
   29142 H6        -697.7487  -428.8469   846.9338 H6            1 RES     
   29143 H6        -699.2581  -429.2698   846.0713 H6            1 RES     
   29144 H6        -697.6502  -429.9926   844.0804 H6            1 RES     
   29145 H6        -696.3242  -429.3256   845.0413 H6            1 RES     
   29146 H6        -697.1508  -427.7952   843.3137 H6            1 RES     
   29147 H6        -698.8188  -427.8380   843.9857 H6            1 RES     
   29148 H6        -696.3354  -426.7139   845.4647 H6            1 RES     
   29149 H6        -698.0258  -426.7635   846.0881 H6            1 RES     
   29150 H6        -698.7978  -425.2843   844.2384 H6            1 RES     
   29151 H6        -697.5647  -424.5503   845.3255 H6            1 RES     
   29152 H6        -696.9793  -425.7332   842.5352 H6            1 RES     
   29153 H6        -695.7648  -424.9924   843.6391 H6            1 RES     
   29154 H6        -696.4993  -423.4811   841.8063 H6            1 RES     
   29155 H6        -698.2104  -423.5902   842.3524 H6            1 RES     
   29156 H6        -697.5783  -422.4524   844.5091 H6            1 RES     
   29157 H6        -697.1034  -421.4764   843.0832 H6            1 RES     
   29158 H6        -695.8472  -422.4166   843.9724 H6            1 RES     
   29159 C0        -689.5259  -437.3431   857.9807 C0            1 RES     
   29160 C0        -689.6038  -438.6540   858.7640 C0            1 RES     
   29161 C0        -690.7513  -439.3229   858.4976 C0            1 RES     
   29162 S1        -690.8583  -440.7968   859.2834 S1            1 RES     
   29163 C0        -689.3386  -440.5975   860.0269 C0            1 RES     
   29164 C0        -688.7610  -439.3922   859.5925 C0            1 RES     
   29165 C0        -691.4696  -438.6431   857.4755 C0            1 RES     
   29166 C0        -690.7796  -437.5812   857.1249 C0            1 RES     
   29167 C0        -691.3008  -436.9835   855.9096 C0            1 RES     
   29168 C0        -692.4096  -437.6837   855.4589 C0            1 RES     
   29169 S1        -692.8904  -439.0824   856.4927 S1            1 RES     
   29170 H2        -687.7560  -439.1213   859.8367 H2            1 RES     
   29171 H2        -690.8223  -436.2058   855.3396 H2            1 RES     
   29172 N3        -687.0531  -441.9133   862.7167 N3            1 RES     
   29173 C0        -687.6718  -441.0832   861.8293 C0            1 RES     
   29174 C0        -688.6856  -441.5475   860.9672 C0            1 RES     
   29175 C0        -689.0382  -442.9031   861.0734 C0            1 RES     
   29176 N3        -689.9904  -443.5123   860.3177 N3            1 RES     
   29177 S1        -689.9331  -445.0736   860.8600 S1            1 RES     
   29178 N3        -688.7591  -445.0477   862.0214 N3            1 RES     
   29179 C0        -688.3693  -443.7471   861.9998 C0            1 RES     
   29180 C0        -687.3742  -443.2319   862.8201 C0            1 RES     
   29181 H4        -687.3919  -440.0446   861.8199 H4            1 RES     
   29182 C5        -681.7036  -442.1852   861.5572 C5            1 RES     
   29183 C5        -682.6994  -441.9742   860.4157 C5            1 RES     
   29184 C5        -683.9051  -441.0983   860.8000 C5            1 RES     
   29185 C5        -683.5333  -439.6612   861.2154 C5            1 RES     
   29186 C5        -684.8009  -438.8476   861.5287 C5            1 RES     
   29187 C5        -684.4899  -437.4797   862.1526 C5            1 RES     
   29188 C5        -685.7696  -436.7018   862.5419 C5            1 RES     
   29189 C5        -686.4869  -435.9729   861.3633 C5            1 RES     
   29190 C5        -687.9456  -436.4246   861.0450 C5            1 RES     
   29191 C5        -688.9029  -436.2322   862.2573 C5            1 RES     
   29192 C5        -690.1219  -437.1718   862.2003 C5            1 RES     
   29193 C5        -690.7592  -437.3560   863.5943 C5            1 RES     
   29194 C5        -691.7835  -438.5051   863.5854 C5            1 RES     
   29195 C5        -692.2297  -438.9346   864.9946 C5            1 RES     
   29196 C5        -693.0084  -437.8617   865.7476 C5            1 RES     
   29197 C5        -688.3952  -435.6840   859.7436 C5            1 RES     
   29198 C0        -689.6514  -436.0127   858.8481 C0            1 RES     
   29199 C5        -689.8476  -434.7272   857.9328 C5            1 RES     
   29200 C5        -691.0065  -433.7752   858.3813 C5            1 RES     
   29201 C5        -692.4085  -434.1858   857.8217 C5            1 RES     
   29202 C5        -692.6419  -433.8876   856.3219 C5            1 RES     
   29203 C5        -693.9522  -434.4651   855.7568 C5            1 RES     
   29204 C5        -695.2425  -433.7733   856.2364 C5            1 RES     
   29205 C5        -695.3725  -432.2860   855.8427 C5            1 RES     
   29206 C5        -695.3478  -432.0497   854.3290 C5            1 RES     
   29207 C5        -690.6892  -432.2571   858.1719 C5            1 RES     
   29208 C5        -690.0643  -431.8316   856.8180 C5            1 RES     
   29209 C5        -689.9929  -430.2986   856.6354 C5            1 RES     
   29210 C5        -689.1587  -429.5729   857.7082 C5            1 RES     
   29211 C5        -689.0917  -428.0463   857.5013 C5            1 RES     
   29212 C5        -688.3137  -427.6328   856.2369 C5            1 RES     
   29213 C5        -688.2485  -426.1089   856.0296 C5            1 RES     
   29214 C5        -687.4910  -425.3691   857.1332 C5            1 RES     
   29215 H6        -681.2292  -441.2280   861.8541 H6            1 RES     
   29216 H6        -680.8984  -442.8724   861.2202 H6            1 RES     
   29217 H6        -682.2092  -442.6378   862.4366 H6            1 RES     
   29218 H6        -682.1723  -441.5299   859.5449 H6            1 RES     
   29219 H6        -683.0863  -442.9726   860.1131 H6            1 RES     
   29220 H6        -684.5853  -441.0556   859.9218 H6            1 RES     
   29221 H6        -684.4507  -441.5918   861.6344 H6            1 RES     
   29222 H6        -682.9619  -439.1598   860.4039 H6            1 RES     
   29223 H6        -682.9022  -439.7052   862.1278 H6            1 RES     
   29224 H6        -685.4087  -438.7318   860.6059 H6            1 RES     
   29225 H6        -685.3742  -439.4134   862.2890 H6            1 RES     
   29226 H6        -683.9275  -437.6850   863.0905 H6            1 RES     
   29227 H6        -683.8417  -436.8596   861.4968 H6            1 RES     
   29228 H6        -686.4286  -437.3862   863.1134 H6            1 RES     
   29229 H6        -685.4565  -435.9042   863.2488 H6            1 RES     
   29230 H6        -685.8642  -436.1288   860.4538 H6            1 RES     
   29231 H6        -686.4769  -434.8776   861.5529 H6            1 RES     
   29232 H6        -687.8258  -437.4742   860.8946 H6            1 RES     
   29233 H6        -688.3528  -436.5403   863.1629 H6            1 RES     
   29234 H6        -689.1838  -435.1694   862.4213 H6            1 RES     
   29235 H6        -690.8586  -436.8369   861.4398 H6            1 RES     
   29236 H6        -689.7475  -438.1759   861.9103 H6            1 RES     
   29237 H6        -691.2125  -436.4058   863.9494 H6            1 RES     
   29238 H6        -689.9540  -437.6497   864.3039 H6            1 RES     
   29239 H6        -692.6591  -438.2371   862.9570 H6            1 RES     
   29240 H6        -691.2963  -439.4001   863.1372 H6            1 RES     
   29241 H6        -691.3392  -439.2302   865.5932 H6            1 RES     
   29242 H6        -692.8825  -439.8289   864.8951 H6            1 RES     
   29243 H6        -693.9205  -437.5829   865.1798 H6            1 RES     
   29244 H6        -692.3833  -436.9618   865.9186 H6            1 RES     
   29245 H6        -693.3148  -438.2636   866.7374 H6            1 RES     
   29246 H6        -687.5468  -435.7202   859.0245 H6            1 RES     
   29247 H6        -688.4907  -434.6254   860.0805 H6            1 RES     
   29248 H6        -688.9023  -434.1453   857.9570 H6            1 RES     
   29249 H6        -689.9176  -434.9399   856.8570 H6            1 RES     
   29250 H6        -691.0907  -433.8811   859.4874 H6            1 RES     
   29251 H6        -692.5501  -435.2708   858.0177 H6            1 RES     
   29252 H6        -693.1913  -433.6389   858.3897 H6            1 RES     
   29253 H6        -692.6379  -432.8007   856.1296 H6            1 RES     
   29254 H6        -691.8185  -434.3299   855.7422 H6            1 RES     
   29255 H6        -693.9160  -434.4003   854.6490 H6            1 RES     
   29256 H6        -694.0074  -435.5433   856.0090 H6            1 RES     
   29257 H6        -695.3228  -433.8637   857.3395 H6            1 RES     
   29258 H6        -696.1040  -434.3193   855.7925 H6            1 RES     
   29259 H6        -694.5748  -431.6817   856.3210 H6            1 RES     
   29260 H6        -696.3470  -431.9164   856.2287 H6            1 RES     
   29261 H6        -696.1532  -432.6305   853.8309 H6            1 RES     
   29262 H6        -695.5093  -430.9712   854.1192 H6            1 RES     
   29263 H6        -694.3673  -432.3314   853.8934 H6            1 RES     
   29264 H6        -689.9485  -431.9701   858.9481 H6            1 RES     
   29265 H6        -691.6179  -431.6797   858.3735 H6            1 RES     
   29266 H6        -690.6370  -432.2099   855.9593 H6            1 RES     
   29267 H6        -689.0440  -432.2543   856.7253 H6            1 RES     
   29268 H6        -689.5493  -430.1176   855.6348 H6            1 RES     
   29269 H6        -691.0253  -429.8844   856.6362 H6            1 RES     
   29270 H6        -688.1281  -429.9881   857.7383 H6            1 RES     
   29271 H6        -689.6341  -429.7405   858.6971 H6            1 RES     
   29272 H6        -690.1227  -427.6302   857.4669 H6            1 RES     
   29273 H6        -688.5763  -427.6243   858.3889 H6            1 RES     
   29274 H6        -688.8141  -428.0535   855.3414 H6            1 RES     
   29275 H6        -687.2805  -428.0410   856.2849 H6            1 RES     
   29276 H6        -687.7210  -425.9168   855.0697 H6            1 RES     
   29277 H6        -689.2769  -425.6953   855.9463 H6            1 RES     
   29278 H6        -688.0072  -425.4642   858.1096 H6            1 RES     
   29279 H6        -687.4402  -424.2884   856.8819 H6            1 RES     
   29280 H6        -686.4558  -425.7613   857.2204 H6            1 RES     
   29281 C0        -683.5490  -445.2800   865.5606 C0            1 RES     
   29282 C0        -683.9469  -446.6854   866.0129 C0            1 RES     
   29283 C0        -685.2767  -446.8961   865.8632 C0            1 RES     
   29284 S1        -685.7556  -448.4431   866.2864 S1            1 RES     
   29285 C0        -684.1675  -448.9058   866.6939 C0            1 RES     
   29286 C0        -683.2896  -447.8395   866.4343 C0            1 RES     
   29287 C0        -685.8644  -445.7737   865.2170 C0            1 RES     
   29288 C0        -684.9175  -444.8946   864.9779 C0            1 RES     
   29289 C0        -685.3757  -443.8462   864.0854 C0            1 RES     
   29290 C0        -686.7056  -444.0425   863.7454 C0            1 RES     
   29291 S1        -687.4734  -445.4881   864.5048 S1            1 RES     
   29292 H2        -682.2280  -447.9459   866.5022 H2            1 RES     
   29293 H2        -684.7512  -443.1032   863.6201 H2            1 RES     
   29294 N3        -682.0951  -451.5381   868.4160 N3            1 RES     
   29295 C0        -682.5212  -450.3458   867.9098 C0            1 RES     
   29296 C0        -683.7419  -450.2328   867.2143 C0            1 RES     
   29297 C0        -684.5058  -451.4037   867.0776 C0            1 RES     
   29298 N3        -685.7023  -451.4716   866.4349 N3            1 RES     
   29299 S1        -686.0909  -453.0733   866.5704 S1            1 RES     
   29300 N3        -684.8244  -453.7196   867.4106 N3            1 RES     
   29301 C0        -684.0321  -452.6343   867.6060 C0            1 RES     
   29302 C0        -682.8178  -452.6833   868.2782 C0            1 RES     
   29303 H4        -681.9167  -449.4725   868.0805 H4            1 RES     
   29304 C5        -677.3577  -452.9517   866.0506 C5            1 RES     
   29305 C5        -678.3767  -452.1447   865.2445 C5            1 RES     
   29306 C5        -679.1568  -451.1176   866.0841 C5            1 RES     
   29307 C5        -678.2747  -450.0302   866.7289 C5            1 RES     
   29308 C5        -679.1433  -449.0219   867.5009 C5            1 RES     
   29309 C5        -678.3117  -448.0418   868.3405 C5            1 RES     
   29310 C5        -679.1926  -447.0849   869.1787 C5            1 RES     
   29311 C5        -679.7851  -445.8721   868.3956 C5            1 RES     
   29312 C5        -681.3404  -445.7817   868.3177 C5            1 RES     
   29313 C5        -681.9995  -445.6913   869.7249 C5            1 RES     
   29314 C5        -683.4565  -446.1906   869.7262 C5            1 RES     
   29315 C5        -683.9167  -446.5876   871.1453 C5            1 RES     
   29316 C5        -685.2548  -447.3473   871.0992 C5            1 RES     
   29317 C5        -685.6160  -448.0267   872.4324 C5            1 RES     
   29318 C5        -685.8808  -447.0475   873.5707 C5            1 RES     
   29319 C5        -681.6965  -444.5975   867.3609 C5            1 RES     
   29320 C0        -683.1029  -444.2826   866.7200 C0            1 RES     
   29321 C5        -682.9877  -442.7847   866.1987 C5            1 RES     
   29322 C5        -683.6899  -441.7200   867.1064 C5            1 RES     
   29323 C5        -685.2124  -441.5373   866.7970 C5            1 RES     
   29324 C5        -685.5414  -440.7603   865.5006 C5            1 RES     
   29325 C5        -687.0347  -440.7542   865.1263 C5            1 RES     
   29326 C5        -687.9414  -439.8994   866.0322 C5            1 RES     
   29327 C5        -687.6243  -438.3884   866.0364 C5            1 RES     
   29328 C5        -687.7351  -437.7364   864.6542 C5            1 RES     
   29329 C5        -682.9194  -440.3605   867.1913 C5            1 RES     
   29330 C5        -682.3850  -439.7511   865.8694 C5            1 RES     
   29331 C5        -681.8352  -438.3167   866.0386 C5            1 RES     
   29332 C5        -680.6658  -438.2020   867.0349 C5            1 RES     
   29333 C5        -680.1256  -436.7650   867.1806 C5            1 RES     
   29334 C5        -679.4399  -436.2359   865.9059 C5            1 RES     
   29335 C5        -678.9024  -434.8008   866.0510 C5            1 RES     
   29336 C5        -677.7954  -434.6606   867.0971 C5            1 RES     
   29337 H6        -676.5559  -452.2970   866.4481 H6            1 RES     
   29338 H6        -676.8819  -453.7074   865.3900 H6            1 RES     
   29339 H6        -677.8563  -453.4804   866.8906 H6            1 RES     
   29340 H6        -677.8596  -451.6320   864.4058 H6            1 RES     
   29341 H6        -679.1114  -452.8598   864.8123 H6            1 RES     
   29342 H6        -679.9003  -450.6303   865.4167 H6            1 RES     
   29343 H6        -679.7125  -451.6594   866.8811 H6            1 RES     
   29344 H6        -677.6891  -449.4952   865.9498 H6            1 RES     
   29345 H6        -677.5727  -450.5149   867.4396 H6            1 RES     
   29346 H6        -679.8012  -448.4751   866.7920 H6            1 RES     
   29347 H6        -679.7593  -449.6003   868.2170 H6            1 RES     
   29348 H6        -677.7237  -448.6620   869.0530 H6            1 RES     
   29349 H6        -677.5932  -447.4653   867.7189 H6            1 RES     
   29350 H6        -679.9544  -447.6923   869.7079 H6            1 RES     
   29351 H6        -678.5367  -446.6508   869.9630 H6            1 RES     
   29352 H6        -679.3834  -445.9235   867.3586 H6            1 RES     
   29353 H6        -679.3857  -444.9294   868.8286 H6            1 RES     
   29354 H6        -681.5980  -446.7305   867.9032 H6            1 RES     
   29355 H6        -681.4617  -446.3926   870.3856 H6            1 RES     
   29356 H6        -681.8858  -444.6890   870.1915 H6            1 RES     
   29357 H6        -684.1392  -445.4549   869.2510 H6            1 RES     
   29358 H6        -683.4812  -447.1287   869.1330 H6            1 RES     
   29359 H6        -683.9744  -445.6957   871.8052 H6            1 RES     
   29360 H6        -683.1636  -447.2902   871.5665 H6            1 RES     
   29361 H6        -686.0708  -446.6723   870.7646 H6            1 RES     
   29362 H6        -685.1602  -448.1711   870.3565 H6            1 RES     
   29363 H6        -684.7996  -448.7225   872.7290 H6            1 RES     
   29364 H6        -686.5358  -448.6314   872.2764 H6            1 RES     
   29365 H6        -686.7187  -446.3701   873.3041 H6            1 RES     
   29366 H6        -684.9750  -446.4509   873.8017 H6            1 RES     
   29367 H6        -686.1613  -447.6183   874.4820 H6            1 RES     
   29368 H6        -681.0178  -444.6587   866.4811 H6            1 RES     
   29369 H6        -681.3870  -443.7017   867.9483 H6            1 RES     
   29370 H6        -681.9093  -442.5258   866.1446 H6            1 RES     
   29371 H6        -683.2743  -442.6446   865.1473 H6            1 RES     
   29372 H6        -683.6484  -442.1169   868.1469 H6            1 RES     
   29373 H6        -685.6771  -442.5464   866.7608 H6            1 RES     
   29374 H6        -685.6814  -440.9836   867.6383 H6            1 RES     
   29375 H6        -685.2039  -439.7117   865.5715 H6            1 RES     
   29376 H6        -685.0015  -441.2264   864.6634 H6            1 RES     
   29377 H6        -687.1347  -440.3810   864.0854 H6            1 RES     
   29378 H6        -687.4086  -441.7979   865.1254 H6            1 RES     
   29379 H6        -687.8917  -440.2823   867.0725 H6            1 RES     
   29380 H6        -688.9885  -440.0263   865.6789 H6            1 RES     
   29381 H6        -686.6125  -438.2004   866.4503 H6            1 RES     
   29382 H6        -688.3566  -437.8896   866.7074 H6            1 RES     
   29383 H6        -688.7489  -437.8951   864.2289 H6            1 RES     
   29384 H6        -687.5571  -436.6439   864.7441 H6            1 RES     
   29385 H6        -686.9749  -438.1421   863.9556 H6            1 RES     
   29386 H6        -682.0243  -440.5336   867.8258 H6            1 RES     
   29387 H6        -683.5658  -439.6307   867.7260 H6            1 RES     
   29388 H6        -683.1652  -439.6846   865.0977 H6            1 RES     
   29389 H6        -681.5865  -440.3973   865.4531 H6            1 RES     
   29390 H6        -681.5016  -437.9832   865.0344 H6            1 RES     
   29391 H6        -682.6607  -437.6481   866.3686 H6            1 RES     
   29392 H6        -679.8380  -438.8800   866.7342 H6            1 RES     
   29393 H6        -681.0262  -438.5109   868.0382 H6            1 RES     
   29394 H6        -680.9540  -436.0848   867.4775 H6            1 RES     
   29395 H6        -679.3804  -436.7840   868.0026 H6            1 RES     
   29396 H6        -680.1719  -436.2177   865.0734 H6            1 RES     
   29397 H6        -678.6048  -436.9135   865.6233 H6            1 RES     
   29398 H6        -678.4812  -434.4927   865.0692 H6            1 RES     
   29399 H6        -679.7361  -434.1092   866.3006 H6            1 RES     
   29400 H6        -678.1717  -434.8880   868.1147 H6            1 RES     
   29401 H6        -677.4247  -433.6137   867.1003 H6            1 RES     
   29402 H6        -676.9477  -435.3356   866.8548 H6            1 RES     
   29403 C0        -679.5451  -456.4327   869.5303 C0            1 RES     
   29404 C0        -680.3193  -457.7376   869.7195 C0            1 RES     
   29405 C0        -681.6507  -457.5124   869.8283 C0            1 RES     
   29406 S1        -682.5515  -458.9155   869.9751 S1            1 RES     
   29407 C0        -681.1665  -459.9041   869.8948 C0            1 RES     
   29408 C0        -680.0301  -459.1006   869.7006 C0            1 RES     
   29409 C0        -681.9170  -456.1323   869.6116 C0            1 RES     
   29410 C0        -680.7755  -455.5251   869.3774 C0            1 RES     
   29411 C0        -680.9800  -454.1769   868.8813 C0            1 RES     
   29412 C0        -682.3334  -453.8828   868.8134 C0            1 RES     
   29413 S1        -683.4230  -455.2104   869.3671 S1            1 RES     
   29414 H2        -679.0655  -459.5162   869.5007 H2            1 RES     
   29415 H2        -680.2161  -453.5373   868.4740 H2            1 RES     
   29416 N3        -679.8655  -463.3966   870.4421 N3            1 RES     
   29417 C0        -679.9382  -462.0390   870.3377 C0            1 RES     
   29418 C0        -681.1369  -461.3889   869.9813 C0            1 RES     
   29419 C0        -682.2573  -462.2042   869.7506 C0            1 RES     
   29420 N3        -683.4861  -461.7418   869.3963 N3            1 RES     
   29421 S1        -684.3613  -463.1360   869.2379 S1            1 RES     
   29422 N3        -683.2765  -464.3288   869.5964 N3            1 RES     
   29423 C0        -682.1498  -463.6168   869.8563 C0            1 RES     
   29424 C0        -680.9391  -464.1997   870.2071 C0            1 RES     
   29425 H4        -679.0606  -461.4608   870.5670 H4            1 RES     
   29426 C5        -676.2471  -465.3285   866.8074 C5            1 RES     
   29427 C5        -677.0428  -464.0686   866.4629 C5            1 RES     
   29428 C5        -677.3119  -463.1562   867.6727 C5            1 RES     
   29429 C5        -676.0378  -462.5991   868.3379 C5            1 RES     
   29430 C5        -676.4051  -461.6592   869.4992 C5            1 RES     
   29431 C5        -675.1864  -461.2430   870.3350 C5            1 RES     
   29432 C5        -675.5730  -460.3660   871.5497 C5            1 RES     
   29433 C5        -675.8329  -458.8618   871.2258 C5            1 RES     
   29434 C5        -677.2647  -458.3190   871.5235 C5            1 RES     
   29435 C5        -677.6523  -458.4629   873.0242 C5            1 RES     
   29436 C5        -679.1769  -458.5099   873.2370 C5            1 RES     
   29437 C5        -679.5391  -459.1586   874.5902 C5            1 RES     
   29438 C5        -681.0459  -459.4631   874.6707 C5            1 RES     
   29439 C5        -681.4214  -460.3726   875.8544 C5            1 RES     
   29440 C5        -681.1838  -459.7364   877.2194 C5            1 RES     
   29441 C5        -677.3380  -456.8566   870.9753 C5            1 RES     
   29442 C0        -678.6353  -455.9858   870.7595 C0            1 RES     
   29443 C5        -678.1037  -454.4967   870.5902 C5            1 RES     
   29444 C5        -678.2782  -453.5918   871.8556 C5            1 RES     
   29445 C5        -679.6812  -452.9061   871.9486 C5            1 RES     
   29446 C5        -679.9119  -451.7240   870.9779 C5            1 RES     
   29447 C5        -681.3554  -451.1891   870.9617 C5            1 RES     
   29448 C5        -681.7905  -450.4180   872.2225 C5            1 RES     
   29449 C5        -680.9926  -449.1274   872.5080 C5            1 RES     
   29450 C5        -681.0733  -448.0959   871.3778 C5            1 RES     
   29451 C5        -677.0963  -452.5908   872.0799 C5            1 RES     
   29452 C5        -676.5809  -451.7972   870.8514 C5            1 RES     
   29453 C5        -675.5682  -450.6904   871.2227 C5            1 RES     
   29454 C5        -674.2996  -451.2059   871.9284 C5            1 RES     
   29455 C5        -673.2983  -450.0871   872.2802 C5            1 RES     
   29456 C5        -672.6618  -449.4234   871.0436 C5            1 RES     
   29457 C5        -671.6637  -448.3054   871.3949 C5            1 RES     
   29458 C5        -670.4379  -448.7946   872.1677 C5            1 RES     
   29459 H6        -675.2261  -465.0719   867.1557 H6            1 RES     
   29460 H6        -676.1467  -465.9597   865.8988 H6            1 RES     
   29461 H6        -676.7699  -465.9174   867.5907 H6            1 RES     
   29462 H6        -676.5078  -463.5000   865.6729 H6            1 RES     
   29463 H6        -678.0261  -464.3890   866.0526 H6            1 RES     
   29464 H6        -677.9373  -462.3064   867.3227 H6            1 RES     
   29465 H6        -677.8984  -463.7283   868.4252 H6            1 RES     
   29466 H6        -675.4232  -462.0468   867.5939 H6            1 RES     
   29467 H6        -675.4442  -463.4474   868.7388 H6            1 RES     
   29468 H6        -676.9367  -460.7670   869.1046 H6            1 RES     
   29469 H6        -677.0713  -462.2242   870.1803 H6            1 RES     
   29470 H6        -674.7438  -462.1837   870.7316 H6            1 RES     
   29471 H6        -674.4119  -460.7363   869.7198 H6            1 RES     
   29472 H6        -676.4110  -460.8617   872.0800 H6            1 RES     
   29473 H6        -674.7071  -460.3832   872.2452 H6            1 RES     
   29474 H6        -675.6207  -458.7183   870.1424 H6            1 RES     
   29475 H6        -675.0868  -458.2392   871.7655 H6            1 RES     
   29476 H6        -677.8781  -458.9925   870.9679 H6            1 RES     
   29477 H6        -677.2907  -459.4484   873.3642 H6            1 RES     
   29478 H6        -677.1481  -457.7153   873.6740 H6            1 RES     
   29479 H6        -679.6362  -457.5064   873.1131 H6            1 RES     
   29480 H6        -679.5945  -459.1868   872.4624 H6            1 RES     
   29481 H6        -679.2043  -458.5203   875.4358 H6            1 RES     
   29482 H6        -679.0106  -460.1358   874.6550 H6            1 RES     
   29483 H6        -681.6299  -458.5189   874.6957 H6            1 RES     
   29484 H6        -681.3352  -460.0253   873.7544 H6            1 RES     
   29485 H6        -680.8491  -461.3250   875.7885 H6            1 RES     
   29486 H6        -682.5019  -460.6210   875.7728 H6            1 RES     
   29487 H6        -681.7779  -458.8036   877.3143 H6            1 RES     
   29488 H6        -680.1084  -459.5134   877.3733 H6            1 RES     
   29489 H6        -681.5071  -460.4459   878.0113 H6            1 RES     
   29490 H6        -676.8486  -456.8459   869.9759 H6            1 RES     
   29491 H6        -676.6696  -456.2968   871.6704 H6            1 RES     
   29492 H6        -677.0195  -454.5474   870.3566 H6            1 RES     
   29493 H6        -678.4721  -453.9804   869.6930 H6            1 RES     
   29494 H6        -678.2253  -454.2706   872.7378 H6            1 RES     
   29495 H6        -680.4547  -453.6871   871.7834 H6            1 RES     
   29496 H6        -679.8170  -452.5143   872.9794 H6            1 RES     
   29497 H6        -679.2392  -450.8814   871.2139 H6            1 RES     
   29498 H6        -679.6803  -452.0569   869.9556 H6            1 RES     
   29499 H6        -681.4708  -450.5153   870.0868 H6            1 RES     
   29500 H6        -682.0508  -452.0376   870.8014 H6            1 RES     
   29501 H6        -681.7254  -451.0864   873.1059 H6            1 RES     
   29502 H6        -682.8590  -450.1361   872.0945 H6            1 RES     
   29503 H6        -679.9284  -449.3612   872.7154 H6            1 RES     
   29504 H6        -681.4160  -448.6619   873.4241 H6            1 RES     
   29505 H6        -682.1314  -447.8313   871.1668 H6            1 RES     
   29506 H6        -680.5322  -447.1737   871.6778 H6            1 RES     
   29507 H6        -680.5969  -448.4760   870.4510 H6            1 RES     
   29508 H6        -676.2299  -453.1863   872.4380 H6            1 RES     
   29509 H6        -677.3820  -451.8984   872.9018 H6            1 RES     
   29510 H6        -677.3948  -451.2912   870.3128 H6            1 RES     
   29511 H6        -676.1088  -452.4905   870.1269 H6            1 RES     
   29512 H6        -675.2871  -450.1855   870.2755 H6            1 RES     
   29513 H6        -676.0701  -449.9437   871.8769 H6            1 RES     
   29514 H6        -673.7946  -451.9704   871.2992 H6            1 RES     
   29515 H6        -674.5976  -451.6805   872.8865 H6            1 RES     
   29516 H6        -673.8037  -449.3194   872.9065 H6            1 RES     
   29517 H6        -672.4942  -450.5546   872.8854 H6            1 RES     
   29518 H6        -673.4553  -448.9572   870.4252 H6            1 RES     
   29519 H6        -672.1473  -450.1948   870.4298 H6            1 RES     
   29520 H6        -671.3062  -447.8549   870.4433 H6            1 RES     
   29521 H6        -672.1769  -447.5119   871.9803 H6            1 RES     
   29522 H6        -670.7217  -449.1945   873.1620 H6            1 RES     
   29523 H6        -669.7441  -447.9430   872.3318 H6            1 RES     
   29524 H6        -669.9051  -449.5790   871.5899 H6            1 RES     
   29525 C0        -678.9550  -468.9132   869.7786 C0            1 RES     
   29526 C0        -680.0838  -469.9435   869.8272 C0            1 RES     
   29527 C0        -681.2358  -469.3951   870.2825 C0            1 RES     
   29528 S1        -682.5211  -470.4671   870.2967 S1            1 RES     
   29529 C0        -681.5686  -471.7366   869.6778 C0            1 RES     
   29530 C0        -680.2691  -471.2649   869.4258 C0            1 RES     
   29531 C0        -681.0565  -467.9954   870.4599 C0            1 RES     
   29532 C0        -679.8230  -467.6930   870.1230 C0            1 RES     
   29533 C0        -679.6359  -466.2581   870.0147 C0            1 RES     
   29534 C0        -680.8103  -465.5888   870.3241 C0            1 RES     
   29535 S1        -682.1897  -466.6578   870.7832 S1            1 RES     
   29536 H2        -679.5352  -471.8575   868.9224 H2            1 RES     
   29537 H2        -678.7681  -465.7691   869.6068 H2            1 RES     
   29538 N3        -681.4374  -475.4545   869.0867 N3            1 RES     
   29539 C0        -681.0693  -474.1627   869.3215 C0            1 RES     
   29540 C0        -682.0217  -473.1272   869.4061 C0            1 RES     
   29541 C0        -683.3698  -473.4898   869.2499 C0            1 RES     
   29542 N3        -684.4122  -472.6180   869.2996 N3            1 RES     
   29543 S1        -685.7135  -473.5998   869.0213 S1            1 RES     
   29544 N3        -685.0472  -475.0998   868.8375 N3            1 RES     
   29545 C0        -683.7235  -474.8420   868.9958 C0            1 RES     
   29546 C0        -682.7384  -475.8178   868.9187 C0            1 RES     
   29547 H4        -680.0265  -473.9482   869.4756 H4            1 RES     
   29548 C5        -679.2128  -477.1740   864.3824 C5            1 RES     
   29549 C5        -679.5852  -475.6980   864.5301 C5            1 RES     
   29550 C5        -679.3638  -475.1424   865.9482 C5            1 RES     
   29551 C5        -677.8971  -475.1862   866.4204 C5            1 RES     
   29552 C5        -677.7650  -474.5638   867.8212 C5            1 RES     
   29553 C5        -676.3728  -474.7706   868.4344 C5            1 RES     
   29554 C5        -676.2721  -474.2159   869.8753 C5            1 RES     
   29555 C5        -676.0607  -472.6732   869.9787 C5            1 RES     
   29556 C5        -677.1744  -471.8617   870.7096 C5            1 RES     
   29557 C5        -677.3733  -472.3233   872.1828 C5            1 RES     
   29558 C5        -678.7813  -471.9998   872.7166 C5            1 RES     
   29559 C5        -679.1447  -472.8869   873.9267 C5            1 RES     
   29560 C5        -680.6401  -472.7650   874.2711 C5            1 RES     
   29561 C5        -681.1263  -473.8371   875.2629 C5            1 RES     
   29562 C5        -680.5021  -473.7218   876.6492 C5            1 RES     
   29563 C5        -676.8343  -470.3441   870.5491 C5            1 RES     
   29564 C0        -677.7857  -469.1202   870.8406 C0            1 RES     
   29565 C5        -676.8193  -467.8592   870.9086 C5            1 RES     
   29566 C5        -676.5043  -467.3534   872.3561 C5            1 RES     
   29567 C5        -677.5724  -466.3594   872.9203 C5            1 RES     
   29568 C5        -677.5315  -464.9302   872.3302 C5            1 RES     
   29569 C5        -678.7027  -464.0306   872.7649 C5            1 RES     
   29570 C5        -678.6759  -463.5725   874.2356 C5            1 RES     
   29571 C5        -677.4632  -462.7008   874.6273 C5            1 RES     
   29572 C5        -677.3546  -461.4047   873.8174 C5            1 RES     
   29573 C5        -675.0381  -466.8365   872.5359 C5            1 RES     
   29574 C5        -674.4662  -465.8967   871.4431 C5            1 RES     
   29575 C5        -673.1021  -465.2785   871.8246 C5            1 RES     
   29576 C5        -671.9908  -466.3129   872.0860 C5            1 RES     
   29577 C5        -670.6361  -465.6749   872.4545 C5            1 RES     
   29578 C5        -669.9955  -464.8854   871.2964 C5            1 RES     
   29579 C5        -668.6441  -464.2471   871.6650 C5            1 RES     
   29580 C5        -667.5547  -465.2651   872.0056 C5            1 RES     
   29581 H6        -678.1264  -477.3285   864.5418 H6            1 RES     
   29582 H6        -679.4560  -477.5132   863.3530 H6            1 RES     
   29583 H6        -679.7861  -477.7944   865.1036 H6            1 RES     
   29584 H6        -679.0082  -475.0975   863.7951 H6            1 RES     
   29585 H6        -680.6664  -475.5943   864.2886 H6            1 RES     
   29586 H6        -679.7143  -474.0875   865.9564 H6            1 RES     
   29587 H6        -679.9953  -475.7206   866.6584 H6            1 RES     
   29588 H6        -677.2447  -474.6365   865.7072 H6            1 RES     
   29589 H6        -677.5687  -476.2458   866.4677 H6            1 RES     
   29590 H6        -678.0201  -473.4834   867.7760 H6            1 RES     
   29591 H6        -678.4785  -475.0921   868.4835 H6            1 RES     
   29592 H6        -676.2165  -475.8709   868.4901 H6            1 RES     
   29593 H6        -675.5684  -474.3453   867.7964 H6            1 RES     
   29594 H6        -677.1440  -474.5885   870.4499 H6            1 RES     
   29595 H6        -675.3725  -474.6786   870.3341 H6            1 RES     
   29596 H6        -675.9670  -472.2847   868.9397 H6            1 RES     
   29597 H6        -675.0824  -472.4720   870.4666 H6            1 RES     
   29598 H6        -678.0480  -472.1421   870.1650 H6            1 RES     
   29599 H6        -677.3154  -473.4252   872.1928 H6            1 RES     
   29600 H6        -676.5637  -471.9720   872.8586 H6            1 RES     
   29601 H6        -678.8941  -470.9173   872.9372 H6            1 RES     
   29602 H6        -679.5041  -472.2744   871.9199 H6            1 RES     
   29603 H6        -678.5020  -472.6451   874.8002 H6            1 RES     
   29604 H6        -678.9670  -473.9475   873.6406 H6            1 RES     
   29605 H6        -680.8680  -471.7451   874.6468 H6            1 RES     
   29606 H6        -681.2250  -472.9293   873.3383 H6            1 RES     
   29607 H6        -680.9177  -474.8491   874.8493 H6            1 RES     
   29608 H6        -682.2281  -473.7364   875.3712 H6            1 RES     
   29609 H6        -680.7335  -472.7300   877.0906 H6            1 RES     
   29610 H6        -679.4034  -473.8655   876.6045 H6            1 RES     
   29611 H6        -680.9281  -474.5111   877.3053 H6            1 RES     
   29612 H6        -676.5143  -470.1795   869.4961 H6            1 RES     
   29613 H6        -675.9275  -470.2238   871.1868 H6            1 RES     
   29614 H6        -675.8575  -468.1421   870.4315 H6            1 RES     
   29615 H6        -677.1174  -467.0212   870.2634 H6            1 RES     
   29616 H6        -676.5566  -468.2468   873.0201 H6            1 RES     
   29617 H6        -678.5764  -466.8074   872.7559 H6            1 RES     
   29618 H6        -677.4246  -466.2648   874.0174 H6            1 RES     
   29619 H6        -676.5911  -464.4183   872.5986 H6            1 RES     
   29620 H6        -677.5692  -465.0003   871.2332 H6            1 RES     
   29621 H6        -678.7094  -463.1263   872.1208 H6            1 RES     
   29622 H6        -679.6555  -464.5636   872.5718 H6            1 RES     
   29623 H6        -678.7131  -464.4601   874.9005 H6            1 RES     
   29624 H6        -679.5970  -462.9770   874.4211 H6            1 RES     
   29625 H6        -676.5189  -463.2744   874.5292 H6            1 RES     
   29626 H6        -677.5753  -462.4244   875.6980 H6            1 RES     
   29627 H6        -678.2834  -460.8036   873.9180 H6            1 RES     
   29628 H6        -676.5017  -460.8018   874.1947 H6            1 RES     
   29629 H6        -677.1662  -461.6148   872.7446 H6            1 RES     
   29630 H6        -674.3773  -467.7292   872.5403 H6            1 RES     
   29631 H6        -674.9596  -466.3639   873.5393 H6            1 RES     
   29632 H6        -675.1330  -465.0477   871.2351 H6            1 RES     
   29633 H6        -674.3575  -466.4510   870.4895 H6            1 RES     
   29634 H6        -672.8051  -464.6190   870.9833 H6            1 RES     
   29635 H6        -673.2307  -464.6464   872.7309 H6            1 RES     
   29636 H6        -671.8617  -466.9695   871.1985 H6            1 RES     
   29637 H6        -672.2920  -466.9432   872.9486 H6            1 RES     
   29638 H6        -670.7650  -465.0144   873.3401 H6            1 RES     
   29639 H6        -669.9563  -466.5054   872.7366 H6            1 RES     
   29640 H6        -670.6676  -464.0553   870.9991 H6            1 RES     
   29641 H6        -669.8577  -465.5555   870.4198 H6            1 RES     
   29642 H6        -668.2945  -463.6574   870.7895 H6            1 RES     
   29643 H6        -668.7774  -463.5488   872.5196 H6            1 RES     
   29644 H6        -667.8127  -465.8417   872.9166 H6            1 RES     
   29645 H6        -666.6018  -464.7298   872.2034 H6            1 RES     
   29646 H6        -667.3990  -465.9627   871.1559 H6            1 RES     
   29647 C0        -682.5120  -480.5582   866.9656 C0            1 RES     
   29648 C0        -683.9001  -481.1967   867.0252 C0            1 RES     
   29649 C0        -684.7289  -480.5048   867.8436 C0            1 RES     
   29650 S1        -686.2817  -481.1272   867.8961 S1            1 RES     
   29651 C0        -685.9013  -482.3743   866.7997 C0            1 RES     
   29652 C0        -684.5678  -482.2348   866.3787 C0            1 RES     
   29653 C0        -684.0722  -479.3279   868.2978 C0            1 RES     
   29654 C0        -682.8684  -479.2998   867.7720 C0            1 RES     
   29655 C0        -682.2328  -478.0092   867.9625 C0            1 RES     
   29656 C0        -683.0629  -477.1579   868.6760 C0            1 RES     
   29657 S1        -684.6401  -477.8813   869.1713 S1            1 RES     
   29658 H2        -684.1505  -482.8354   865.5988 H2            1 RES     
   29659 H2        -681.3182  -477.6870   867.4953 H2            1 RES     
   29660 N3        -687.0958  -485.6362   865.3427 N3            1 RES     
   29661 C0        -686.2907  -484.6278   865.7835 C0            1 RES     
   29662 C0        -686.8236  -483.4383   866.3200 C0            1 RES     
   29663 C0        -688.2234  -483.3449   866.3912 C0            1 RES     
   29664 N3        -688.8995  -482.2696   866.8767 N3            1 RES     
   29665 S1        -690.4783  -482.7195   866.6773 S1            1 RES     
   29666 N3        -690.3804  -484.2240   866.0029 N3            1 RES     
   29667 C0        -689.0377  -484.4069   865.9147 C0            1 RES     
   29668 C0        -688.4535  -485.5532   865.3920 C0            1 RES     
   29669 H4        -685.2252  -484.7700   865.7445 H4            1 RES     
   29670 C5        -686.2508  -486.4566   859.9902 C5            1 RES     
   29671 C5        -686.0877  -485.0461   860.5585 C5            1 RES     
   29672 C5        -685.4979  -485.0156   861.9797 C5            1 RES     
   29673 C5        -684.0780  -485.6062   862.0858 C5            1 RES     
   29674 C5        -683.5518  -485.4844   863.5264 C5            1 RES     
   29675 C5        -682.2357  -486.2443   863.7444 C5            1 RES     
   29676 C5        -681.7557  -486.1873   865.2143 C5            1 RES     
   29677 C5        -681.0320  -484.8671   865.6248 C5            1 RES     
   29678 C5        -681.6991  -484.0261   866.7566 C5            1 RES     
   29679 C5        -681.8313  -484.8232   868.0871 C5            1 RES     
   29680 C5        -682.9625  -484.2879   868.9846 C5            1 RES     
   29681 C5        -683.4262  -485.3505   870.0040 C5            1 RES     
   29682 C5        -684.7325  -484.9194   870.6951 C5            1 RES     
   29683 C5        -685.4028  -486.0527   871.4924 C5            1 RES     
   29684 C5        -684.5879  -486.5286   872.6899 C5            1 RES     
   29685 C5        -680.9006  -482.6878   866.8826 C5            1 RES     
   29686 C0        -681.3411  -481.3871   867.6585 C0            1 RES     
   29687 C5        -680.0115  -480.5262   867.7996 C5            1 RES     
   29688 C5        -679.3468  -480.5761   869.2160 C5            1 RES     
   29689 C5        -679.9342  -479.5324   870.2223 C5            1 RES     
   29690 C5        -679.5044  -478.0649   869.9887 C5            1 RES     
   29691 C5        -680.2375  -477.0406   870.8739 C5            1 RES     
   29692 C5        -679.8542  -477.0598   872.3660 C5            1 RES     
   29693 C5        -678.3787  -476.7188   872.6669 C5            1 RES     
   29694 C5        -677.9608  -475.3277   872.1790 C5            1 RES     
   29695 C5        -677.7823  -480.5686   869.1764 C5            1 RES     
   29696 C5        -677.0902  -479.5506   868.2334 C5            1 RES     
   29697 C5        -675.5590  -479.4809   868.4314 C5            1 RES     
   29698 C5        -674.8290  -480.8152   868.1867 C5            1 RES     
   29699 C5        -673.3019  -480.7209   868.3791 C5            1 RES     
   29700 C5        -672.6046  -479.8406   867.3238 C5            1 RES     
   29701 C5        -671.0805  -479.7450   867.5171 C5            1 RES     
   29702 C5        -670.3543  -481.0814   867.3561 C5            1 RES     
   29703 H6        -685.2664  -486.9500   859.8601 H6            1 RES     
   29704 H6        -686.7347  -486.3970   858.9920 H6            1 RES     
   29705 H6        -686.8904  -487.0735   860.6566 H6            1 RES     
   29706 H6        -685.4532  -484.4445   859.8735 H6            1 RES     
   29707 H6        -687.0956  -484.5766   860.5979 H6            1 RES     
   29708 H6        -685.4735  -483.9553   862.3128 H6            1 RES     
   29709 H6        -686.1793  -485.5743   862.6587 H6            1 RES     
   29710 H6        -683.3870  -485.0786   861.3926 H6            1 RES     
   29711 H6        -684.1167  -486.6808   861.8091 H6            1 RES     
   29712 H6        -683.4375  -484.4120   863.7934 H6            1 RES     
   29713 H6        -684.2998  -485.9604   864.1902 H6            1 RES     
   29714 H6        -682.4474  -487.3102   863.5051 H6            1 RES     
   29715 H6        -681.4337  -485.8951   863.0591 H6            1 RES     
   29716 H6        -682.6121  -486.4508   865.8672 H6            1 RES     
   29717 H6        -681.0058  -486.9974   865.3376 H6            1 RES     
   29718 H6        -680.9613  -484.2343   864.7116 H6            1 RES     
   29719 H6        -679.9842  -485.1010   865.9129 H6            1 RES     
   29720 H6        -682.6835  -483.8774   866.3727 H6            1 RES     
   29721 H6        -682.1416  -485.8495   867.8261 H6            1 RES     
   29722 H6        -680.8648  -484.9276   868.6259 H6            1 RES     
   29723 H6        -682.6775  -483.3314   869.4716 H6            1 RES     
   29724 H6        -683.8395  -484.1024   868.3297 H6            1 RES     
   29725 H6        -682.6240  -485.5659   870.7419 H6            1 RES     
   29726 H6        -683.6526  -486.2861   869.4456 H6            1 RES     
   29727 H6        -684.5539  -484.0331   871.3400 H6            1 RES     
   29728 H6        -685.4634  -484.6322   869.9061 H6            1 RES     
   29729 H6        -685.6021  -486.9153   870.8178 H6            1 RES     
   29730 H6        -686.3820  -485.6826   871.8665 H6            1 RES     
   29731 H6        -684.4126  -485.6862   873.3912 H6            1 RES     
   29732 H6        -683.6169  -486.9557   872.3666 H6            1 RES     
   29733 H6        -685.1553  -487.3222   873.2222 H6            1 RES     
   29734 H6        -680.6951  -482.3192   865.8529 H6            1 RES     
   29735 H6        -679.9254  -483.0195   867.3096 H6            1 RES     
   29736 H6        -679.2751  -480.9156   867.0655 H6            1 RES     
   29737 H6        -680.1019  -479.4877   867.4522 H6            1 RES     
   29738 H6        -679.5990  -481.5722   869.6471 H6            1 RES     
   29739 H6        -681.0425  -479.6114   870.1883 H6            1 RES     
   29740 H6        -679.6111  -479.8086   871.2489 H6            1 RES     
   29741 H6        -678.4197  -477.9401   870.1504 H6            1 RES     
   29742 H6        -679.7167  -477.7974   868.9433 H6            1 RES     
   29743 H6        -680.0339  -476.0238   870.4773 H6            1 RES     
   29744 H6        -681.3302  -477.2034   870.7813 H6            1 RES     
   29745 H6        -680.0903  -478.0552   872.7959 H6            1 RES     
   29746 H6        -680.4897  -476.3109   872.8880 H6            1 RES     
   29747 H6        -677.7020  -477.4799   872.2274 H6            1 RES     
   29748 H6        -678.2414  -476.7480   873.7694 H6            1 RES     
   29749 H6        -678.6136  -474.5467   872.6237 H6            1 RES     
   29750 H6        -676.9121  -475.1270   872.4845 H6            1 RES     
   29751 H6        -678.0052  -475.2588   871.0728 H6            1 RES     
   29752 H6        -677.4616  -481.5715   868.8232 H6            1 RES     
   29753 H6        -677.4116  -480.4523   870.2182 H6            1 RES     
   29754 H6        -677.4595  -478.5264   868.3852 H6            1 RES     
   29755 H6        -677.3065  -479.8088   867.1775 H6            1 RES     
   29756 H6        -675.1811  -478.7154   867.7227 H6            1 RES     
   29757 H6        -675.3421  -479.1322   869.4652 H6            1 RES     
   29758 H6        -675.0509  -481.1919   867.1648 H6            1 RES     
   29759 H6        -675.1983  -481.5590   868.9232 H6            1 RES     
   29760 H6        -673.0787  -480.3401   869.4000 H6            1 RES     
   29761 H6        -672.9038  -481.7536   868.2989 H6            1 RES     
   29762 H6        -672.9978  -478.8059   867.3878 H6            1 RES     
   29763 H6        -672.8214  -480.2352   866.3071 H6            1 RES     
   29764 H6        -670.6814  -479.0482   866.7479 H6            1 RES     
   29765 H6        -670.8532  -479.3195   868.5185 H6            1 RES     
   29766 H6        -670.6586  -481.8025   868.1412 H6            1 RES     
   29767 H6        -669.2600  -480.9181   867.4535 H6            1 RES     
   29768 H6        -670.5598  -481.5142   866.3543 H6            1 RES     
   29769 C0        -690.0895  -489.3778   862.3864 C0            1 RES     
   29770 C0        -691.5879  -489.5884   862.6064 C0            1 RES     
   29771 C0        -692.0166  -488.9625   863.7287 C0            1 RES     
   29772 S1        -693.6644  -489.1101   863.9829 S1            1 RES     
   29773 C0        -693.8772  -490.0359   862.5688 C0            1 RES     
   29774 C0        -692.6460  -490.1603   861.9028 C0            1 RES     
   29775 C0        -690.9498  -488.2045   864.2854 C0            1 RES     
   29776 C0        -689.8912  -488.3634   863.5233 C0            1 RES     
   29777 C0        -688.8433  -487.4184   863.8618 C0            1 RES     
   29778 C0        -689.2350  -486.6157   864.9225 C0            1 RES     
   29779 S1        -690.8769  -486.9783   865.5773 S1            1 RES     
   29780 H2        -692.5654  -490.5984   860.9309 H2            1 RES     
   29781 H2        -687.9487  -487.2444   863.2891 H2            1 RES     
   29782 N3        -696.2783  -492.2549   860.6980 N3            1 RES     
   29783 C0        -695.1308  -491.6887   861.1690 C0            1 RES     
   29784 C0        -695.1579  -490.6087   862.0743 C0            1 RES     
   29785 C0        -696.4227  -490.1506   862.4789 C0            1 RES     
   29786 N3        -696.6284  -489.1197   863.3415 N3            1 RES     
   29787 S1        -698.2785  -489.0286   863.4035 S1            1 RES     
   29788 N3        -698.7810  -490.2339   862.3922 N3            1 RES     
   29789 C0        -697.6017  -490.7528   861.9635 C0            1 RES     
   29790 C0        -697.5104  -491.8118   861.0698 C0            1 RES     
   29791 H4        -694.1895  -492.1069   860.8589 H4            1 RES     
   29792 C5        -696.5129  -491.6761   855.2531 C5            1 RES     
   29793 C5        -695.8128  -490.5991   856.0833 C5            1 RES     
   29794 C5        -695.0533  -491.1529   857.3019 C5            1 RES     
   29795 C5        -693.9100  -492.1231   856.9444 C5            1 RES     
   29796 C5        -693.1766  -492.5812   858.2170 C5            1 RES     
   29797 C5        -692.1706  -493.7097   857.9493 C5            1 RES     
   29798 C5        -691.4978  -494.2227   859.2448 C5            1 RES     
   29799 C5        -690.3270  -493.3397   859.7784 C5            1 RES     
   29800 C5        -690.5115  -492.7147   861.1956 C5            1 RES     
   29801 C5        -690.7128  -493.7954   862.2978 C5            1 RES     
   29802 C5        -691.4645  -493.2506   863.5266 C5            1 RES     
   29803 C5        -692.1069  -494.3897   864.3471 C5            1 RES     
   29804 C5        -693.0854  -493.8306   865.3957 C5            1 RES     
   29805 C5        -693.9750  -494.9113   866.0362 C5            1 RES     
   29806 C5        -693.2049  -495.9258   866.8742 C5            1 RES     
   29807 C5        -689.3048  -491.7529   861.4475 C5            1 RES     
   29808 C0        -689.1752  -490.6673   862.5844 C0            1 RES     
   29809 C5        -687.6294  -490.2957   862.6195 C5            1 RES     
   29810 C5        -686.8273  -490.9427   863.7978 C5            1 RES     
   29811 C5        -686.8878  -490.1181   865.1258 C5            1 RES     
   29812 C5        -686.0325  -488.8295   865.1508 C5            1 RES     
   29813 C5        -686.2523  -487.9462   866.3924 C5            1 RES     
   29814 C5        -685.6919  -488.5081   867.7129 C5            1 RES     
   29815 C5        -684.1601  -488.6994   867.7448 C5            1 RES     
   29816 C5        -683.3770  -487.4028   867.5141 C5            1 RES     
   29817 C5        -685.3710  -491.3641   863.4097 C5            1 RES     
   29818 C5        -684.5196  -490.3525   862.5996 C5            1 RES     
   29819 C5        -683.0404  -490.7772   862.4583 C5            1 RES     
   29820 C5        -682.8366  -492.1304   861.7507 C5            1 RES     
   29821 C5        -681.3538  -492.5299   861.6107 C5            1 RES     
   29822 C5        -680.5591  -491.6126   860.6610 C5            1 RES     
   29823 C5        -679.0785  -492.0105   860.5229 C5            1 RES     
   29824 C5        -678.8673  -493.3889   859.8949 C5            1 RES     
   29825 H6        -695.7765  -492.3657   854.7931 H6            1 RES     
   29826 H6        -697.0844  -491.1934   854.4318 H6            1 RES     
   29827 H6        -697.2208  -492.2550   855.8835 H6            1 RES     
   29828 H6        -695.1173  -490.0272   855.4330 H6            1 RES     
   29829 H6        -696.5918  -489.8981   856.4573 H6            1 RES     
   29830 H6        -694.6320  -490.2882   857.8591 H6            1 RES     
   29831 H6        -695.7791  -491.6707   857.9672 H6            1 RES     
   29832 H6        -693.1874  -491.6323   856.2564 H6            1 RES     
   29833 H6        -694.3415  -493.0133   856.4405 H6            1 RES     
   29834 H6        -692.6767  -491.7114   858.6943 H6            1 RES     
   29835 H6        -693.9394  -493.0002   858.9022 H6            1 RES     
   29836 H6        -692.7554  -494.5542   857.5216 H6            1 RES     
   29837 H6        -691.4026  -493.4155   857.2020 H6            1 RES     
   29838 H6        -692.2926  -494.4138   859.9938 H6            1 RES     
   29839 H6        -691.0499  -495.2100   859.0033 H6            1 RES     
   29840 H6        -690.1791  -492.5140   859.0465 H6            1 RES     
   29841 H6        -689.3868  -493.9324   859.7602 H6            1 RES     
   29842 H6        -691.4342  -492.1897   861.0890 H6            1 RES     
   29843 H6        -691.3795  -494.5697   861.8811 H6            1 RES     
   29844 H6        -689.7703  -494.3202   862.5653 H6            1 RES     
   29845 H6        -690.8129  -492.5991   864.1464 H6            1 RES     
   29846 H6        -692.3129  -492.6429   863.1481 H6            1 RES     
   29847 H6        -691.3266  -495.0281   864.8140 H6            1 RES     
   29848 H6        -692.7068  -495.0178   863.6515 H6            1 RES     
   29849 H6        -692.5342  -493.2596   866.1725 H6            1 RES     
   29850 H6        -693.7825  -493.1317   864.8812 H6            1 RES     
   29851 H6        -694.5419  -495.4461   865.2416 H6            1 RES     
   29852 H6        -694.7132  -494.4071   866.6971 H6            1 RES     
   29853 H6        -692.6636  -495.4104   867.6948 H6            1 RES     
   29854 H6        -692.4863  -496.4946   866.2499 H6            1 RES     
   29855 H6        -693.9230  -496.6473   867.3202 H6            1 RES     
   29856 H6        -689.1351  -491.1725   860.5134 H6            1 RES     
   29857 H6        -688.4453  -492.4553   861.5543 H6            1 RES     
   29858 H6        -687.1746  -490.6438   861.6683 H6            1 RES     
   29859 H6        -687.4177  -489.2195   862.5538 H6            1 RES     
   29860 H6        -687.3327  -491.9083   864.0298 H6            1 RES     
   29861 H6        -687.9526  -489.8687   865.3249 H6            1 RES     
   29862 H6        -686.5341  -490.7618   865.9595 H6            1 RES     
   29863 H6        -684.9565  -489.0677   865.0885 H6            1 RES     
   29864 H6        -686.2883  -488.2193   864.2722 H6            1 RES     
   29865 H6        -685.7805  -486.9581   866.2088 H6            1 RES     
   29866 H6        -687.3386  -487.7606   866.5130 H6            1 RES     
   29867 H6        -686.1822  -489.4773   867.9403 H6            1 RES     
   29868 H6        -685.9630  -487.7976   868.5247 H6            1 RES     
   29869 H6        -683.8431  -489.4567   866.9989 H6            1 RES     
   29870 H6        -683.8872  -489.0873   868.7499 H6            1 RES     
   29871 H6        -683.6644  -486.6355   868.2642 H6            1 RES     
   29872 H6        -682.2894  -487.6036   867.6137 H6            1 RES     
   29873 H6        -683.5507  -487.0036   866.4938 H6            1 RES     
   29874 H6        -685.4541  -492.2676   862.7692 H6            1 RES     
   29875 H6        -684.8405  -491.6670   864.3388 H6            1 RES     
   29876 H6        -684.5030  -489.3570   863.0656 H6            1 RES     
   29877 H6        -684.9551  -490.2186   861.5892 H6            1 RES     
   29878 H6        -682.5331  -489.9766   861.8816 H6            1 RES     
   29879 H6        -682.5774  -490.8221   863.4687 H6            1 RES     
   29880 H6        -683.3119  -492.1132   860.7461 H6            1 RES     
   29881 H6        -683.3247  -492.9219   862.3569 H6            1 RES     
   29882 H6        -680.8761  -492.5434   862.6151 H6            1 RES     
   29883 H6        -681.3364  -493.5622   861.2040 H6            1 RES     
   29884 H6        -680.5735  -490.5751   861.0518 H6            1 RES     
   29885 H6        -681.0348  -491.6149   859.6560 H6            1 RES     
   29886 H6        -678.5828  -491.2608   859.8681 H6            1 RES     
   29887 H6        -678.5849  -491.9785   861.5183 H6            1 RES     
   29888 H6        -679.2804  -494.1921   860.5377 H6            1 RES     
   29889 H6        -677.7786  -493.5759   859.7787 H6            1 RES     
   29890 H6        -679.3430  -493.4335   858.8925 H6            1 RES     
   29891 C0        -700.7273  -493.9677   857.7022 C0            1 RES     
   29892 C0        -702.1641  -493.8032   858.1986 C0            1 RES     
   29893 C0        -702.1990  -493.4390   859.5029 C0            1 RES     
   29894 S1        -703.7495  -493.1849   860.0801 S1            1 RES     
   29895 C0        -704.4535  -493.5575   858.5742 C0            1 RES     
   29896 C0        -703.4396  -493.8224   857.6378 C0            1 RES     
   29897 C0        -700.8742  -493.2091   859.9662 C0            1 RES     
   29898 C0        -700.0463  -493.4290   858.9698 C0            1 RES     
   29899 C0        -698.7076  -492.9590   859.2746 C0            1 RES     
   29900 C0        -698.6579  -492.4256   860.5536 C0            1 RES     
   29901 S1        -700.2181  -492.4870   861.4582 S1            1 RES     
   29902 H2        -703.6461  -493.9610   856.5980 H2            1 RES     
   29903 H2        -697.8956  -492.8840   858.5720 H2            1 RES     
   29904 N3        -707.6921  -494.3628   856.8272 N3            1 RES     
   29905 C0        -706.3677  -494.3058   857.1465 C0            1 RES     
   29906 C0        -705.9076  -493.5761   858.2612 C0            1 RES     
   29907 C0        -706.8787  -492.9201   859.0358 C0            1 RES     
   29908 N3        -706.6075  -492.1726   860.1388 N3            1 RES     
   29909 S1        -708.1078  -491.6434   860.5904 S1            1 RES     
   29910 N3        -709.1184  -492.3077   859.4655 N3            1 RES     
   29911 C0        -708.2506  -492.9882   858.6732 C0            1 RES     
   29912 C0        -708.6422  -493.7202   857.5600 C0            1 RES     
   29913 H4        -705.6719  -494.8620   856.5435 H4            1 RES     
   29914 C5        -708.4822  -492.1745   851.8650 C5            1 RES     
   29915 C5        -707.3553  -491.6300   852.7441 C5            1 RES     
   29916 C5        -706.6598  -492.7064   853.5963 C5            1 RES     
   29917 C5        -705.9653  -493.8099   852.7741 C5            1 RES     
   29918 C5        -705.2549  -494.8072   853.7056 C5            1 RES     
   29919 C5        -704.7285  -496.0431   852.9622 C5            1 RES     
   29920 C5        -704.0895  -497.0803   853.9162 C5            1 RES     
   29921 C5        -702.6295  -496.7587   854.3635 C5            1 RES     
   29922 C5        -702.3954  -496.5503   855.8915 C5            1 RES     
   29923 C5        -702.7874  -497.8038   856.7270 C5            1 RES     
   29924 C5        -703.1355  -497.4542   858.1859 C5            1 RES     
   29925 C5        -703.9978  -498.5547   858.8406 C5            1 RES     
   29926 C5        -704.5780  -498.0755   860.1835 C5            1 RES     
   29927 C5        -705.6767  -499.0004   860.7374 C5            1 RES     
   29928 C5        -705.1775  -500.3894   861.1196 C5            1 RES     
   29929 C5        -700.9152  -496.0843   856.0826 C5            1 RES     
   29930 C0        -700.2746  -495.4613   857.3823 C0            1 RES     
   29931 C5        -698.7044  -495.5665   857.1540 C5            1 RES     
   29932 C5        -698.0057  -496.7282   857.9368 C5            1 RES     
   29933 C5        -697.6022  -496.3462   859.3992 C5            1 RES     
   29934 C5        -696.3732  -495.4162   859.5311 C5            1 RES     
   29935 C5        -696.1110  -494.9105   860.9613 C5            1 RES     
   29936 C5        -695.5896  -495.9681   861.9529 C5            1 RES     
   29937 C5        -694.2198  -496.5830   861.5933 C5            1 RES     
   29938 C5        -693.0912  -495.5506   861.5015 C5            1 RES     
   29939 C5        -696.8415  -497.4094   857.1433 C5            1 RES     
   29940 C5        -695.8251  -496.4871   856.4215 C5            1 RES     
   29941 C5        -694.6060  -497.2499   855.8553 C5            1 RES     
   29942 C5        -694.9643  -498.3368   854.8241 C5            1 RES     
   29943 C5        -693.7333  -499.0780   854.2644 C5            1 RES     
   29944 C5        -692.8206  -498.1851   853.4013 C5            1 RES     
   29945 C5        -691.5909  -498.9247   852.8442 C5            1 RES     
   29946 C5        -691.9394  -500.0601   851.8806 C5            1 RES     
   29947 H6        -708.0887  -492.8773   851.1029 H6            1 RES     
   29948 H6        -708.9703  -491.3324   851.3296 H6            1 RES     
   29949 H6        -709.2464  -492.6890   852.4855 H6            1 RES     
   29950 H6        -706.6079  -491.1126   852.1059 H6            1 RES     
   29951 H6        -707.7969  -490.8797   853.4370 H6            1 RES     
   29952 H6        -705.9016  -492.1976   854.2305 H6            1 RES     
   29953 H6        -707.4154  -493.1701   854.2682 H6            1 RES     
   29954 H6        -705.2249  -493.3632   852.0751 H6            1 RES     
   29955 H6        -706.7340  -494.3547   852.1867 H6            1 RES     
   29956 H6        -704.4329  -494.2925   854.2476 H6            1 RES     
   29957 H6        -706.0094  -495.1762   854.4277 H6            1 RES     
   29958 H6        -705.6143  -496.5254   852.4921 H6            1 RES     
   29959 H6        -704.0193  -495.7715   852.1510 H6            1 RES     
   29960 H6        -704.7894  -497.2506   854.7591 H6            1 RES     
   29961 H6        -704.0332  -498.0379   853.3563 H6            1 RES     
   29962 H6        -702.3201  -495.8315   853.8307 H6            1 RES     
   29963 H6        -701.9517  -497.5594   853.9960 H6            1 RES     
   29964 H6        -703.0969  -495.7798   856.1212 H6            1 RES     
   29965 H6        -703.7247  -498.2022   856.3022 H6            1 RES     
   29966 H6        -702.0448  -498.6268   856.6452 H6            1 RES     
   29967 H6        -702.2245  -497.2234   858.7775 H6            1 RES     
   29968 H6        -703.7783  -496.5494   858.1609 H6            1 RES     
   29969 H6        -703.4162  -499.4942   858.9574 H6            1 RES     
   29970 H6        -704.8634  -498.7565   858.1711 H6            1 RES     
   29971 H6        -703.7654  -497.9359   860.9275 H6            1 RES     
   29972 H6        -705.0685  -497.0901   860.0171 H6            1 RES     
   29973 H6        -706.4944  -499.0973   859.9885 H6            1 RES     
   29974 H6        -706.1053  -498.5254   861.6465 H6            1 RES     
   29975 H6        -704.3864  -500.3107   861.8942 H6            1 RES     
   29976 H6        -704.7835  -500.9286   860.2344 H6            1 RES     
   29977 H6        -706.0243  -500.9774   861.5347 H6            1 RES     
   29978 H6        -700.6953  -495.3282   855.2963 H6            1 RES     
   29979 H6        -700.3316  -496.9991   855.8259 H6            1 RES     
   29980 H6        -698.5291  -495.7342   856.0706 H6            1 RES     
   29981 H6        -698.1589  -494.6232   857.2956 H6            1 RES     
   29982 H6        -698.7652  -497.5365   858.0446 H6            1 RES     
   29983 H6        -698.4848  -495.8771   859.8856 H6            1 RES     
   29984 H6        -697.3690  -497.2779   859.9578 H6            1 RES     
   29985 H6        -695.4573  -495.9183   859.1742 H6            1 RES     
   29986 H6        -696.5326  -494.5296   858.9002 H6            1 RES     
   29987 H6        -695.3687  -494.0864   860.9122 H6            1 RES     
   29988 H6        -697.0459  -494.4707   861.3634 H6            1 RES     
   29989 H6        -696.3368  -496.7825   862.0521 H6            1 RES     
   29990 H6        -695.4929  -495.4801   862.9478 H6            1 RES     
   29991 H6        -694.2799  -497.1459   860.6395 H6            1 RES     
   29992 H6        -693.9530  -497.3084   862.3920 H6            1 RES     
   29993 H6        -692.9995  -494.9881   862.4550 H6            1 RES     
   29994 H6        -692.1293  -496.0692   861.3039 H6            1 RES     
   29995 H6        -693.2638  -494.8384   860.6688 H6            1 RES     
   29996 H6        -697.3087  -498.0243   856.3451 H6            1 RES     
   29997 H6        -696.3169  -498.1072   857.8319 H6            1 RES     
   29998 H6        -695.4139  -495.7182   857.0910 H6            1 RES     
   29999 H6        -696.3286  -495.9466   855.5951 H6            1 RES     
   30000 H6        -693.9480  -496.4920   855.3826 H6            1 RES     
   30001 H6        -694.0474  -497.7167   856.6963 H6            1 RES     
   30002 H6        -695.5428  -497.8935   853.9850 H6            1 RES     
   30003 H6        -695.5972  -499.1004   855.3226 H6            1 RES     
   30004 H6        -693.1513  -499.5186   855.1036 H6            1 RES     
   30005 H6        -694.1167  -499.9073   853.6346 H6            1 RES     
   30006 H6        -692.4349  -497.3473   854.0165 H6            1 RES     
   30007 H6        -693.4061  -497.7593   852.5573 H6            1 RES     
   30008 H6        -690.9715  -498.1873   852.2883 H6            1 RES     
   30009 H6        -690.9803  -499.3255   853.6820 H6            1 RES     
   30010 H6        -692.5012  -500.8661   852.3941 H6            1 RES     
   30011 H6        -691.0022  -500.5031   851.4819 H6            1 RES     
   30012 H6        -692.5385  -499.6738   851.0293 H6            1 RES     
   30013 C0        -712.8308  -493.8005   854.5957 C0            1 RES     
   30014 C0        -714.0469  -493.3914   855.4274 C0            1 RES     
   30015 C0        -713.7757  -493.4305   856.7540 C0            1 RES     
   30016 S1        -715.0568  -492.9311   857.7085 S1            1 RES     
   30017 C0        -716.0483  -492.6330   856.3557 C0            1 RES     
   30018 C0        -715.3217  -492.8862   855.1798 C0            1 RES     
   30019 C0        -712.3986  -493.7284   856.9475 C0            1 RES     
   30020 C0        -711.8390  -493.8706   855.7672 C0            1 RES     
   30021 C0        -710.3915  -493.9067   855.8637 C0            1 RES     
   30022 C0        -709.9888  -493.8075   857.1868 C0            1 RES     
   30023 S1        -711.3377  -493.6895   858.3796 S1            1 RES     
   30024 H2        -715.7062  -492.6506   854.2104 H2            1 RES     
   30025 H2        -709.7077  -493.8608   855.0337 H2            1 RES     
   30026 N3        -719.5817  -491.9471   855.2447 N3            1 RES     
   30027 C0        -718.2825  -492.3609   855.2618 C0            1 RES     
   30028 C0        -717.4548  -492.1496   856.3829 C0            1 RES     
   30029 C0        -718.0344  -491.5036   857.4875 C0            1 RES     
   30030 N3        -717.3786  -491.2194   858.6444 N3            1 RES     
   30031 S1        -718.5392  -490.4461   859.5331 S1            1 RES     
   30032 N3        -719.8602  -490.4399   858.5416 N3            1 RES     
   30033 C0        -719.3875  -491.0739   857.4377 C0            1 RES     
   30034 C0        -720.1519  -491.3070   856.3020 C0            1 RES     
   30035 H4        -717.9026  -492.8884   854.4047 H4            1 RES     
   30036 C5        -720.2881  -488.2729   851.2401 C5            1 RES     
   30037 C5        -718.9329  -488.3494   851.9450 C5            1 RES     
   30038 C5        -718.5218  -489.7781   852.3430 C5            1 RES     
   30039 C5        -718.3556  -490.7413   851.1511 C5            1 RES     
   30040 C5        -717.8933  -492.1251   851.6392 C5            1 RES     
   30041 C5        -717.9167  -493.1852   850.5289 C5            1 RES     
   30042 C5        -717.5310  -494.5919   851.0451 C5            1 RES     
   30043 C5        -715.9997  -494.8394   851.2143 C5            1 RES     
   30044 C5        -715.4979  -495.1620   852.6556 C5            1 RES     
   30045 C5        -716.1625  -496.4419   853.2414 C5            1 RES     
   30046 C5        -716.1666  -496.4514   854.7815 C5            1 RES     
   30047 C5        -717.2444  -497.4064   855.3380 C5            1 RES     
   30048 C5        -717.4383  -497.1981   856.8508 C5            1 RES     
   30049 C5        -718.6926  -497.8966   857.4062 C5            1 RES     
   30050 C5        -718.6343  -499.4183   857.3309 C5            1 RES     
   30051 C5        -713.9357  -495.2082   852.6117 C5            1 RES     
   30052 C0        -712.9491  -495.1993   853.8424 C0            1 RES     
   30053 C5        -711.5512  -495.6702   853.2481 C5            1 RES     
   30054 C5        -711.1753  -497.1574   853.5599 C5            1 RES     
   30055 C5        -710.4671  -497.3497   854.9414 C5            1 RES     
   30056 C5        -708.9935  -496.8840   855.0065 C5            1 RES     
   30057 C5        -708.3805  -496.9140   856.4184 C5            1 RES     
   30058 C5        -708.1061  -498.3174   856.9919 C5            1 RES     
   30059 C5        -707.0828  -499.1593   856.1996 C5            1 RES     
   30060 C5        -705.7003  -498.5063   856.0996 C5            1 RES     
   30061 C5        -710.4266  -497.8751   852.3879 C5            1 RES     
   30062 C5        -709.2736  -497.1068   851.6916 C5            1 RES     
   30063 C5        -708.4689  -497.9811   850.7033 C5            1 RES     
   30064 C5        -709.3085  -498.5720   849.5548 C5            1 RES     
   30065 C5        -708.4846  -499.4317   848.5749 C5            1 RES     
   30066 C5        -707.4580  -498.6198   847.7615 C5            1 RES     
   30067 C5        -706.6344  -499.4784   846.7847 C5            1 RES     
   30068 C5        -707.4714  -500.1362   845.6867 C5            1 RES     
   30069 H6        -720.2611  -488.8028   850.2665 H6            1 RES     
   30070 H6        -720.5390  -487.2093   851.0403 H6            1 RES     
   30071 H6        -721.0847  -488.7098   851.8790 H6            1 RES     
   30072 H6        -718.1535  -487.8999   851.2938 H6            1 RES     
   30073 H6        -718.9987  -487.7423   852.8751 H6            1 RES     
   30074 H6        -717.5569  -489.7118   852.8908 H6            1 RES     
   30075 H6        -719.2864  -490.1860   853.0404 H6            1 RES     
   30076 H6        -717.6147  -490.3367   850.4275 H6            1 RES     
   30077 H6        -719.3358  -490.8512   850.6414 H6            1 RES     
   30078 H6        -716.8797  -492.0445   852.0869 H6            1 RES     
   30079 H6        -718.6184  -492.4615   852.4060 H6            1 RES     
   30080 H6        -718.9689  -493.2394   850.1711 H6            1 RES     
   30081 H6        -717.2786  -492.8990   849.6652 H6            1 RES     
   30082 H6        -718.1223  -494.7974   851.9602 H6            1 RES     
   30083 H6        -717.8749  -495.3192   850.2791 H6            1 RES     
   30084 H6        -715.4780  -493.9231   850.8572 H6            1 RES     
   30085 H6        -715.6847  -495.6544   850.5270 H6            1 RES     
   30086 H6        -715.8643  -494.3277   853.2108 H6            1 RES     
   30087 H6        -717.2286  -496.4181   852.9577 H6            1 RES     
   30088 H6        -715.7544  -497.3789   852.8045 H6            1 RES     
   30089 H6        -715.1572  -496.6697   855.1898 H6            1 RES     
   30090 H6        -716.4694  -495.4364   855.1139 H6            1 RES     
   30091 H6        -716.9974  -498.4627   855.0981 H6            1 RES     
   30092 H6        -718.2128  -497.1514   854.8525 H6            1 RES     
   30093 H6        -716.5296  -497.5168   857.4041 H6            1 RES     
   30094 H6        -717.5921  -496.1109   857.0341 H6            1 RES     
   30095 H6        -719.5925  -497.5361   856.8594 H6            1 RES     
   30096 H6        -718.8072  -497.6080   858.4736 H6            1 RES     
   30097 H6        -717.7616  -499.7955   857.9038 H6            1 RES     
   30098 H6        -718.5698  -499.7629   856.2789 H6            1 RES     
   30099 H6        -719.5612  -499.8390   857.7770 H6            1 RES     
   30100 H6        -713.5898  -494.3489   851.9951 H6            1 RES     
   30101 H6        -713.7309  -496.1333   852.0238 H6            1 RES     
   30102 H6        -711.5953  -495.5557   852.1446 H6            1 RES     
   30103 H6        -710.7095  -495.0029   853.4794 H6            1 RES     
   30104 H6        -712.1369  -497.7142   853.6441 H6            1 RES     
   30105 H6        -711.0665  -496.8151   855.7099 H6            1 RES     
   30106 H6        -710.4805  -498.4303   855.1996 H6            1 RES     
   30107 H6        -708.3558  -497.4959   854.3454 H6            1 RES     
   30108 H6        -708.9363  -495.8442   854.6527 H6            1 RES     
   30109 H6        -707.4214  -496.3552   856.3972 H6            1 RES     
   30110 H6        -709.0502  -496.3668   857.1121 H6            1 RES     
   30111 H6        -709.0595  -498.8806   857.0638 H6            1 RES     
   30112 H6        -707.7144  -498.1897   858.0252 H6            1 RES     
   30113 H6        -707.4595  -499.3778   855.1795 H6            1 RES     
   30114 H6        -706.9627  -500.1310   856.7255 H6            1 RES     
   30115 H6        -705.2943  -498.2970   857.1122 H6            1 RES     
   30116 H6        -705.0028  -499.1929   855.5749 H6            1 RES     
   30117 H6        -705.7416  -497.5631   855.5172 H6            1 RES     
   30118 H6        -711.1785  -498.0722   851.5946 H6            1 RES     
   30119 H6        -710.0723  -498.8620   852.7581 H6            1 RES     
   30120 H6        -708.5409  -496.7157   852.4118 H6            1 RES     
   30121 H6        -709.6798  -496.2294   851.1496 H6            1 RES     
   30122 H6        -707.6698  -497.3351   850.2849 H6            1 RES     
   30123 H6        -707.9848  -498.8110   851.2639 H6            1 RES     
   30124 H6        -709.8187  -497.7586   848.9949 H6            1 RES     
   30125 H6        -710.0825  -499.2377   849.9905 H6            1 RES     
   30126 H6        -707.9703  -500.2436   849.1348 H6            1 RES     
   30127 H6        -709.2058  -499.8976   847.8719 H6            1 RES     
   30128 H6        -706.7338  -498.1425   848.4522 H6            1 RES     
   30129 H6        -707.9811  -497.8190   847.1944 H6            1 RES     
   30130 H6        -705.8897  -498.8160   846.2916 H6            1 RES     
   30131 H6        -706.0803  -500.2617   847.3461 H6            1 RES     
   30132 H6        -708.1910  -500.8652   846.1107 H6            1 RES     
   30133 H6        -706.8001  -500.6879   844.9949 H6            1 RES     
   30134 H6        -708.0214  -499.3655   845.1066 H6            1 RES     
   30135 C0        -724.5014  -489.3352   854.4229 C0            1 RES     
   30136 C0        -725.3835  -488.8627   855.5790 C0            1 RES     
   30137 C0        -724.9574  -489.3629   856.7637 C0            1 RES     
   30138 S1        -725.8529  -488.8257   858.0717 S1            1 RES     
   30139 C0        -726.8686  -487.8785   857.0851 C0            1 RES     
   30140 C0        -726.4397  -487.9701   855.7500 C0            1 RES     
   30141 C0        -723.7446  -490.0791   856.5669 C0            1 RES     
   30142 C0        -723.4352  -490.0210   855.2911 C0            1 RES     
   30143 C0        -722.0835  -490.4893   855.0479 C0            1 RES     
   30144 C0        -721.4893  -490.8990   856.2319 C0            1 RES     
   30145 S1        -722.5413  -490.7610   857.6916 S1            1 RES     
   30146 H2        -726.8560  -487.3629   854.9747 H2            1 RES     
   30147 H2        -721.5467  -490.3968   854.1195 H2            1 RES     
   30148 N3        -730.0928  -485.9330   856.9904 N3            1 RES     
   30149 C0        -729.0158  -486.6814   856.6172 C0            1 RES     
   30150 C0        -728.0164  -487.0491   857.5406 C0            1 RES     
   30151 C0        -728.1877  -486.6190   858.8668 C0            1 RES     
   30152 N3        -727.3195  -486.8822   859.8797 N3            1 RES     
   30153 S1        -728.0209  -486.1091   861.1624 S1            1 RES     
   30154 N3        -729.3901  -485.4419   860.5236 N3            1 RES     
   30155 C0        -729.3144  -485.8312   859.2249 C0            1 RES     
   30156 C0        -730.2640  -485.4970   858.2684 C0            1 RES     
   30157 H4        -728.9566  -487.0196   855.5977 H4            1 RES     
   30158 C5        -730.0938  -481.2044   854.2197 C5            1 RES     
   30159 C5        -728.7562  -481.8616   854.5633 C5            1 RES     
   30160 C5        -728.7911  -483.3994   854.5135 C5            1 RES     
   30161 C5        -729.1228  -483.9777   853.1237 C5            1 RES     
   30162 C5        -729.0824  -485.5153   853.1580 C5            1 RES     
   30163 C5        -729.6117  -486.1527   851.8655 C5            1 RES     
   30164 C5        -729.6465  -487.6979   851.9383 C5            1 RES     
   30165 C5        -728.2764  -488.4042   851.6956 C5            1 RES     
   30166 C5        -727.7133  -489.2618   852.8706 C5            1 RES     
   30167 C5        -728.6759  -490.4162   853.2755 C5            1 RES     
   30168 C5        -728.4670  -490.8744   854.7309 C5            1 RES     
   30169 C5        -729.7113  -491.6069   855.2771 C5            1 RES     
   30170 C5        -729.6110  -491.8048   856.8004 C5            1 RES     
   30171 C5        -730.9350  -492.2530   857.4451 C5            1 RES     
   30172 C5        -731.3962  -493.6381   857.0054 C5            1 RES     
   30173 C5        -726.2775  -489.7305   852.4664 C5            1 RES     
   30174 C0        -725.1816  -490.3599   853.4103 C0            1 RES     
   30175 C5        -724.1173  -491.0095   852.4233 C5            1 RES     
   30176 C5        -724.2165  -492.5657   852.2862 C5            1 RES     
   30177 C5        -723.4260  -493.3449   853.3885 C5            1 RES     
   30178 C5        -721.8876  -493.3526   853.2269 C5            1 RES     
   30179 C5        -721.1278  -493.9656   854.4173 C5            1 RES     
   30180 C5        -721.2573  -495.4931   854.5702 C5            1 RES     
   30181 C5        -720.6932  -496.3186   853.3936 C5            1 RES     
   30182 C5        -719.2008  -496.0812   853.1401 C5            1 RES     
   30183 C5        -723.9206  -493.0892   850.8413 C5            1 RES     
   30184 C5        -722.6877  -492.5074   850.1024 C5            1 RES     
   30185 C5        -722.3658  -493.2436   848.7822 C5            1 RES     
   30186 C5        -723.5061  -493.2114   847.7468 C5            1 RES     
   30187 C5        -723.1603  -493.9421   846.4336 C5            1 RES     
   30188 C5        -722.0472  -493.2507   845.6226 C5            1 RES     
   30189 C5        -721.7008  -493.9812   844.3126 C5            1 RES     
   30190 C5        -722.8539  -494.0257   843.3089 C5            1 RES     
   30191 H6        -730.3810  -481.4114   853.1689 H6            1 RES     
   30192 H6        -730.0028  -480.1033   854.3357 H6            1 RES     
   30193 H6        -730.8923  -481.5667   854.9015 H6            1 RES     
   30194 H6        -727.9712  -481.4794   853.8767 H6            1 RES     
   30195 H6        -728.4856  -481.5604   855.5997 H6            1 RES     
   30196 H6        -727.7921  -483.7706   854.8298 H6            1 RES     
   30197 H6        -729.5419  -483.7614   855.2502 H6            1 RES     
   30198 H6        -728.3988  -483.6045   852.3668 H6            1 RES     
   30199 H6        -730.1451  -483.6534   852.8367 H6            1 RES     
   30200 H6        -728.0473  -485.8577   853.3721 H6            1 RES     
   30201 H6        -729.7629  -485.8433   853.9681 H6            1 RES     
   30202 H6        -730.6614  -485.8016   851.7514 H6            1 RES     
   30203 H6        -729.0426  -485.8178   850.9717 H6            1 RES     
   30204 H6        -730.1379  -487.9872   852.8891 H6            1 RES     
   30205 H6        -730.3160  -488.0417   851.1214 H6            1 RES     
   30206 H6        -727.5357  -487.6089   851.4544 H6            1 RES     
   30207 H6        -728.3494  -489.0364   850.7843 H6            1 RES     
   30208 H6        -727.7004  -488.5588   853.6731 H6            1 RES     
   30209 H6        -729.7023  -490.0116   853.2529 H6            1 RES     
   30210 H6        -728.6675  -491.2595   852.5515 H6            1 RES     
   30211 H6        -727.5406  -491.4772   854.8388 H6            1 RES     
   30212 H6        -728.3660  -489.9588   855.3506 H6            1 RES     
   30213 H6        -729.8651  -492.5716   854.7478 H6            1 RES     
   30214 H6        -730.5981  -490.9596   855.0956 H6            1 RES     
   30215 H6        -728.7915  -492.5134   857.0446 H6            1 RES     
   30216 H6        -729.3679  -490.8215   857.2622 H6            1 RES     
   30217 H6        -731.7315  -491.5104   857.2148 H6            1 RES     
   30218 H6        -730.7965  -492.2694   858.5480 H6            1 RES     
   30219 H6        -730.6270  -494.3959   857.2626 H6            1 RES     
   30220 H6        -731.5979  -493.6633   855.9152 H6            1 RES     
   30221 H6        -732.3379  -493.8925   857.5378 H6            1 RES     
   30222 H6        -725.7561  -488.8620   852.0059 H6            1 RES     
   30223 H6        -726.4759  -490.4616   851.6481 H6            1 RES     
   30224 H6        -724.2751  -490.5696   851.4162 H6            1 RES     
   30225 H6        -723.0782  -490.7040   852.6083 H6            1 RES     
   30226 H6        -725.2865  -492.8288   852.4524 H6            1 RES     
   30227 H6        -723.7000  -492.9126   854.3753 H6            1 RES     
   30228 H6        -723.7609  -494.4042   853.3834 H6            1 RES     
   30229 H6        -721.5886  -493.8977   852.3149 H6            1 RES     
   30230 H6        -721.5388  -492.3148   853.1222 H6            1 RES     
   30231 H6        -720.0506  -493.7183   854.3117 H6            1 RES     
   30232 H6        -721.4737  -493.4802   855.3521 H6            1 RES     
   30233 H6        -722.3235  -495.7609   854.7214 H6            1 RES     
   30234 H6        -720.7046  -495.7890   855.4891 H6            1 RES     
   30235 H6        -721.2601  -496.1138   852.4625 H6            1 RES     
   30236 H6        -720.8299  -497.3943   853.6371 H6            1 RES     
   30237 H6        -718.6106  -496.3004   854.0554 H6            1 RES     
   30238 H6        -718.8516  -496.7513   852.3263 H6            1 RES     
   30239 H6        -719.0080  -495.0372   852.8188 H6            1 RES     
   30240 H6        -724.7986  -492.8257   850.2143 H6            1 RES     
   30241 H6        -723.8658  -494.1991   850.8812 H6            1 RES     
   30242 H6        -721.7734  -492.5668   850.7099 H6            1 RES     
   30243 H6        -722.8513  -491.4328   849.8862 H6            1 RES     
   30244 H6        -721.4646  -492.7555   848.3573 H6            1 RES     
   30245 H6        -722.1111  -494.3022   849.0096 H6            1 RES     
   30246 H6        -723.7906  -492.1607   847.5222 H6            1 RES     
   30247 H6        -724.3880  -493.7298   848.1779 H6            1 RES     
   30248 H6        -722.8715  -494.9926   846.6577 H6            1 RES     
   30249 H6        -724.0863  -493.9594   845.8224 H6            1 RES     
   30250 H6        -721.1164  -493.2203   846.2243 H6            1 RES     
   30251 H6        -722.3489  -492.2058   845.3911 H6            1 RES     
   30252 H6        -720.8555  -493.4409   843.8332 H6            1 RES     
   30253 H6        -721.3653  -495.0171   844.5358 H6            1 RES     
   30254 H6        -723.7077  -494.6137   843.7018 H6            1 RES     
   30255 H6        -722.5078  -494.5163   842.3745 H6            1 RES     
   30256 H6        -723.1926  -492.9969   843.0641 H6            1 RES     
   30257 C0        -733.9305  -481.9219   857.9313 C0            1 RES     
   30258 C0        -734.4344  -481.5804   859.3339 C0            1 RES     
   30259 C0        -734.0368  -482.5040   860.2417 C0            1 RES     
   30260 S1        -734.5105  -482.1440   861.8062 S1            1 RES     
   30261 C0        -735.2818  -480.7040   861.3229 C0            1 RES     
   30262 C0        -735.0994  -480.5176   859.9420 C0            1 RES     
   30263 C0        -733.1707  -483.4420   859.6150 C0            1 RES     
   30264 C0        -733.0418  -483.1026   858.3522 C0            1 RES     
   30265 C0        -731.9703  -483.8395   857.7083 C0            1 RES     
   30266 C0        -731.3860  -484.7275   858.5987 C0            1 RES     
   30267 S1        -732.1169  -484.7327   860.2486 S1            1 RES     
   30268 H2        -735.3950  -479.6187   859.4442 H2            1 RES     
   30269 H2        -731.5690  -483.6342   856.7308 H2            1 RES     
   30270 N3        -737.6571  -477.9915   862.4140 N3            1 RES     
   30271 C0        -736.9532  -478.8692   861.6436 C0            1 RES     
   30272 C0        -736.0135  -479.7565   862.2060 C0            1 RES     
   30273 C0        -735.8446  -479.7033   863.5995 C0            1 RES     
   30274 N3        -734.9800  -480.4844   864.3006 N3            1 RES     
   30275 S1        -735.1979  -479.9560   865.8524 S1            1 RES     
   30276 N3        -736.3432  -478.7742   865.7124 N3            1 RES     
   30277 C0        -736.5839  -478.7713   864.3760 C0            1 RES     
   30278 C0        -737.4930  -477.9189   863.7632 C0            1 RES     
   30279 H4        -737.1531  -478.8966   860.5870 H4            1 RES     
   30280 C5        -736.4771  -472.8588   860.8978 C5            1 RES     
   30281 C5        -735.3992  -473.9361   860.7680 C5            1 RES     
   30282 C5        -735.9492  -475.3172   860.3696 C5            1 RES     
   30283 C5        -736.6454  -475.3458   858.9946 C5            1 RES     
   30284 C5        -737.1133  -476.7725   858.6589 C5            1 RES     
   30285 C5        -737.9998  -476.8279   857.4067 C5            1 RES     
   30286 C5        -738.5349  -478.2516   857.1226 C5            1 RES     
   30287 C5        -737.5253  -479.2114   856.4194 C5            1 RES     
   30288 C5        -737.1199  -480.4975   857.2036 C5            1 RES     
   30289 C5        -738.3442  -481.4002   857.5338 C5            1 RES     
   30290 C5        -738.0973  -482.3037   858.7565 C5            1 RES     
   30291 C5        -739.4246  -482.7831   859.3823 C5            1 RES     
   30292 C5        -739.1832  -483.4379   860.7544 C5            1 RES     
   30293 C5        -740.4766  -483.6639   861.5578 C5            1 RES     
   30294 C5        -741.4282  -484.6714   860.9223 C5            1 RES     
   30295 C5        -735.9928  -481.2113   856.3884 C5            1 RES     
   30296 C0        -735.0470  -482.3708   856.8873 C0            1 RES     
   30297 C5        -734.4081  -482.9750   855.5623 C5            1 RES     
   30298 C5        -735.0365  -484.3292   855.0915 C5            1 RES     
   30299 C5        -734.4031  -485.5862   855.7742 C5            1 RES     
   30300 C5        -732.9933  -485.9786   855.2729 C5            1 RES     
   30301 C5        -732.3210  -487.1008   856.0846 C5            1 RES     
   30302 C5        -732.9273  -488.5053   855.9016 C5            1 RES     
   30303 C5        -732.8400  -489.0740   854.4688 C5            1 RES     
   30304 C5        -731.4046  -489.2025   853.9484 C5            1 RES     
   30305 C5        -735.1368  -484.4681   853.5359 C5            1 RES     
   30306 C5        -733.8972  -484.0669   852.6951 C5            1 RES     
   30307 C5        -734.0263  -484.4438   851.2019 C5            1 RES     
   30308 C5        -735.2245  -483.7908   850.4870 C5            1 RES     
   30309 C5        -735.3286  -484.1716   848.9963 C5            1 RES     
   30310 C5        -734.1744  -483.6153   848.1398 C5            1 RES     
   30311 C5        -734.2775  -483.9971   846.6521 C5            1 RES     
   30312 C5        -735.5086  -483.4198   845.9521 C5            1 RES     
   30313 H6        -736.9610  -472.6597   859.9202 H6            1 RES     
   30314 H6        -736.0105  -471.9120   861.2442 H6            1 RES     
   30315 H6        -737.2466  -473.1649   861.6379 H6            1 RES     
   30316 H6        -734.6364  -473.6067   860.0310 H6            1 RES     
   30317 H6        -734.9016  -474.0402   861.7577 H6            1 RES     
   30318 H6        -735.0961  -476.0299   860.3571 H6            1 RES     
   30319 H6        -736.6665  -475.6525   861.1510 H6            1 RES     
   30320 H6        -735.9523  -474.9868   858.2028 H6            1 RES     
   30321 H6        -737.5317  -474.6779   859.0292 H6            1 RES     
   30322 H6        -736.2313  -477.4390   858.5483 H6            1 RES     
   30323 H6        -737.7433  -477.1179   859.5019 H6            1 RES     
   30324 H6        -738.8785  -476.1785   857.6173 H6            1 RES     
   30325 H6        -737.4831  -476.4203   856.5113 H6            1 RES     
   30326 H6        -738.9560  -478.6562   858.0650 H6            1 RES     
   30327 H6        -739.3881  -478.1385   856.4204 H6            1 RES     
   30328 H6        -736.6042  -478.6223   856.2101 H6            1 RES     
   30329 H6        -737.9310  -479.5021   855.4261 H6            1 RES     
   30330 H6        -736.7620  -480.0934   858.1240 H6            1 RES     
   30331 H6        -739.1706  -480.7353   857.8382 H6            1 RES     
   30332 H6        -738.7178  -481.9615   856.6502 H6            1 RES     
   30333 H6        -737.4181  -483.1467   858.5090 H6            1 RES     
   30334 H6        -737.6123  -481.6767   859.5337 H6            1 RES     
   30335 H6        -739.9625  -483.4666   858.6910 H6            1 RES     
   30336 H6        -740.0624  -481.8890   859.5616 H6            1 RES     
   30337 H6        -738.6197  -484.3875   860.6353 H6            1 RES     
   30338 H6        -738.5653  -482.7428   861.3661 H6            1 RES     
   30339 H6        -741.0054  -482.6939   861.6928 H6            1 RES     
   30340 H6        -740.1982  -484.0406   862.5660 H6            1 RES     
   30341 H6        -740.9261  -485.6556   860.8153 H6            1 RES     
   30342 H6        -741.7776  -484.3188   859.9307 H6            1 RES     
   30343 H6        -742.3164  -484.7950   861.5786 H6            1 RES     
   30344 H6        -735.2827  -480.4293   856.0382 H6            1 RES     
   30345 H6        -736.5352  -481.5842   855.4883 H6            1 RES     
   30346 H6        -734.5506  -482.2339   854.7480 H6            1 RES     
   30347 H6        -733.3115  -483.0421   855.5746 H6            1 RES     
   30348 H6        -736.0986  -484.3175   855.4284 H6            1 RES     
   30349 H6        -734.3768  -485.4028   856.8702 H6            1 RES     
   30350 H6        -735.0678  -486.4588   855.5974 H6            1 RES     
   30351 H6        -733.0231  -486.2940   854.2156 H6            1 RES     
   30352 H6        -732.3381  -485.0976   855.3377 H6            1 RES     
   30353 H6        -731.2489  -487.1469   855.7998 H6            1 RES     
   30354 H6        -732.3515  -486.8335   857.1601 H6            1 RES     
   30355 H6        -733.9896  -488.4944   856.2223 H6            1 RES     
   30356 H6        -732.3811  -489.2000   856.5772 H6            1 RES     
   30357 H6        -733.4315  -488.4549   853.7637 H6            1 RES     
   30358 H6        -733.2905  -490.0900   854.4787 H6            1 RES     
   30359 H6        -730.7985  -489.8367   854.6299 H6            1 RES     
   30360 H6        -731.4154  -489.6750   852.9434 H6            1 RES     
   30361 H6        -730.9233  -488.2085   853.8448 H6            1 RES     
   30362 H6        -735.9563  -483.7969   853.2021 H6            1 RES     
   30363 H6        -735.4483  -485.5095   853.3020 H6            1 RES     
   30364 H6        -732.9788  -484.5560   853.0500 H6            1 RES     
   30365 H6        -733.7234  -482.9754   852.7784 H6            1 RES     
   30366 H6        -733.0832  -484.1268   850.7110 H6            1 RES     
   30367 H6        -734.1081  -485.5495   851.1123 H6            1 RES     
   30368 H6        -735.1727  -482.6848   850.5839 H6            1 RES     
   30369 H6        -736.1587  -484.1427   850.9723 H6            1 RES     
   30370 H6        -735.3764  -485.2785   848.8978 H6            1 RES     
   30371 H6        -736.2838  -483.7481   848.6226 H6            1 RES     
   30372 H6        -733.2117  -484.0253   848.5064 H6            1 RES     
   30373 H6        -734.1415  -482.5078   848.2329 H6            1 RES     
   30374 H6        -733.3768  -483.6007   846.1344 H6            1 RES     
   30375 H6        -734.2770  -485.1035   846.5457 H6            1 RES     
   30376 H6        -736.4451  -483.8320   846.3787 H6            1 RES     
   30377 H6        -735.4796  -483.6920   844.8756 H6            1 RES     
   30378 H6        -735.5174  -482.3126   846.0370 H6            1 RES     
   30379 C0        -739.7738  -473.5218   865.1052 C0            1 RES     
   30380 C0        -739.9339  -473.4784   866.6252 C0            1 RES     
   30381 C0        -739.7423  -474.7000   867.1786 C0            1 RES     
   30382 S1        -739.8453  -474.6956   868.8493 S1            1 RES     
   30383 C0        -740.1547  -473.0212   868.9022 C0            1 RES     
   30384 C0        -740.1163  -472.4980   867.5985 C0            1 RES     
   30385 C0        -739.3335  -475.6175   866.1717 C0            1 RES     
   30386 C0        -739.2777  -474.9740   865.0275 C0            1 RES     
   30387 C0        -738.6130  -475.7603   864.0049 C0            1 RES     
   30388 C0        -738.2379  -476.9968   864.5081 C0            1 RES     
   30389 S1        -738.6900  -477.2788   866.2322 S1            1 RES     
   30390 H2        -740.1634  -471.4478   867.4042 H2            1 RES     
   30391 H2        -738.3076  -475.3995   863.0379 H2            1 RES     
   30392 N3        -741.3172  -470.1936   871.1028 N3            1 RES     
   30393 C0        -741.0599  -470.9682   870.0105 C0            1 RES     
   30394 C0        -740.3989  -472.2079   870.1236 C0            1 RES     
   30395 C0        -740.0283  -472.6146   871.4161 C0            1 RES     
   30396 N3        -739.3828  -473.7767   871.7021 N3            1 RES     
   30397 S1        -739.1930  -473.6867   873.3424 S1            1 RES     
   30398 N3        -739.8888  -472.2435   873.7440 N3            1 RES     
   30399 C0        -740.2998  -471.7821   872.5348 C0            1 RES     
   30400 C0        -740.9508  -470.5681   872.3590 C0            1 RES     
   30401 H4        -741.4036  -470.6278   869.0498 H4            1 RES     
   30402 C5        -738.7254  -465.3906   870.6016 C5            1 RES     
   30403 C5        -738.0958  -466.6404   869.9844 C5            1 RES     
   30404 C5        -739.1230  -467.6314   869.4089 C5            1 RES     
   30405 C5        -739.9748  -467.0593   868.2585 C5            1 RES     
   30406 C5        -740.9318  -468.1335   867.7132 C5            1 RES     
   30407 C5        -741.9527  -467.5684   866.7155 C5            1 RES     
   30408 C5        -742.9642  -468.6360   866.2347 C5            1 RES     
   30409 C5        -742.4396  -469.5914   865.1180 C5            1 RES     
   30410 C5        -742.3783  -471.1102   865.4681 C5            1 RES     
   30411 C5        -743.7737  -471.6876   865.8454 C5            1 RES     
   30412 C5        -743.6718  -472.9405   866.7353 C5            1 RES     
   30413 C5        -744.9814  -473.1886   867.5143 C5            1 RES     
   30414 C5        -744.7811  -474.2565   868.6048 C5            1 RES     
   30415 C5        -745.9500  -474.3344   869.6033 C5            1 RES     
   30416 C5        -747.2612  -474.8017   868.9812 C5            1 RES     
   30417 C5        -741.6781  -471.8409   864.2764 C5            1 RES     
   30418 C0        -741.1108  -473.3127   864.2645 C0            1 RES     
   30419 C5        -740.9011  -473.6567   862.7261 C5            1 RES     
   30420 C5        -742.0027  -474.5800   862.1060 C5            1 RES     
   30421 C5        -741.7333  -476.1067   862.3155 C5            1 RES     
   30422 C5        -740.6187  -476.7150   861.4322 C5            1 RES     
   30423 C5        -740.2503  -478.1673   861.7864 C5            1 RES     
   30424 C5        -741.3077  -479.2268   861.4219 C5            1 RES     
   30425 C5        -741.6159  -479.3518   859.9141 C5            1 RES     
   30426 C5        -740.3925  -479.7206   859.0685 C5            1 RES     
   30427 C5        -742.3604  -474.2235   860.6248 C5            1 RES     
   30428 C5        -741.1888  -473.9593   859.6440 C5            1 RES     
   30429 C5        -741.6437  -473.8305   858.1726 C5            1 RES     
   30430 C5        -742.6450  -472.6876   857.9187 C5            1 RES     
   30431 C5        -743.0774  -472.5701   856.4432 C5            1 RES     
   30432 C5        -741.9363  -472.1356   855.5030 C5            1 RES     
   30433 C5        -742.3677  -472.0202   854.0299 C5            1 RES     
   30434 C5        -743.4227  -470.9415   853.7799 C5            1 RES     
   30435 H6        -739.2479  -464.7865   869.8325 H6            1 RES     
   30436 H6        -737.9274  -464.7579   871.0453 H6            1 RES     
   30437 H6        -739.4411  -465.6706   871.4036 H6            1 RES     
   30438 H6        -737.3782  -466.3381   869.1924 H6            1 RES     
   30439 H6        -737.5273  -467.1651   870.7841 H6            1 RES     
   30440 H6        -738.5656  -468.5189   869.0385 H6            1 RES     
   30441 H6        -739.7939  -467.9648   870.2313 H6            1 RES     
   30442 H6        -739.3201  -466.6944   867.4372 H6            1 RES     
   30443 H6        -740.5750  -466.2098   868.6469 H6            1 RES     
   30444 H6        -740.3458  -468.9583   867.2541 H6            1 RES     
   30445 H6        -741.5160  -468.5187   868.5718 H6            1 RES     
   30446 H6        -742.5273  -466.7894   867.2643 H6            1 RES     
   30447 H6        -741.4610  -467.0791   865.8473 H6            1 RES     
   30448 H6        -743.3592  -469.1631   867.1266 H6            1 RES     
   30449 H6        -743.8210  -468.0872   865.7891 H6            1 RES     
   30450 H6        -741.4142  -469.2507   864.8501 H6            1 RES     
   30451 H6        -743.0537  -469.4522   864.2020 H6            1 RES     
   30452 H6        -741.7812  -471.1109   866.3524 H6            1 RES     
   30453 H6        -744.2812  -470.9366   866.4747 H6            1 RES     
   30454 H6        -744.4324  -471.8370   864.9626 H6            1 RES     
   30455 H6        -743.3527  -473.8296   866.1513 H6            1 RES     
   30456 H6        -742.9023  -472.7313   867.5077 H6            1 RES     
   30457 H6        -745.8069  -473.4598   866.8219 H6            1 RES     
   30458 H6        -745.2545  -472.2445   868.0363 H6            1 RES     
   30459 H6        -744.5873  -475.2479   868.1434 H6            1 RES     
   30460 H6        -743.8883  -473.9739   869.2066 H6            1 RES     
   30461 H6        -746.1024  -473.3387   870.0767 H6            1 RES     
   30462 H6        -745.6740  -475.0520   870.4063 H6            1 RES     
   30463 H6        -747.1345  -475.8110   868.5371 H6            1 RES     
   30464 H6        -747.6091  -474.0909   868.2043 H6            1 RES     
   30465 H6        -748.0388  -474.8569   869.7733 H6            1 RES     
   30466 H6        -740.8053  -471.2234   863.9678 H6            1 RES     
   30467 H6        -742.4341  -471.7658   863.4601 H6            1 RES     
   30468 H6        -740.9022  -472.7010   862.1610 H6            1 RES     
   30469 H6        -739.8986  -474.0300   862.4751 H6            1 RES     
   30470 H6        -742.9424  -474.3692   862.6667 H6            1 RES     
   30471 H6        -741.4943  -476.2672   863.3892 H6            1 RES     
   30472 H6        -742.6678  -476.6655   862.0942 H6            1 RES     
   30473 H6        -740.8994  -476.6856   860.3651 H6            1 RES     
   30474 H6        -739.7060  -476.1130   861.5516 H6            1 RES     
   30475 H6        -739.3054  -478.4274   861.2648 H6            1 RES     
   30476 H6        -740.0392  -478.2291   862.8730 H6            1 RES     
   30477 H6        -742.2500  -479.0120   861.9671 H6            1 RES     
   30478 H6        -740.9340  -480.2130   861.7757 H6            1 RES     
   30479 H6        -742.0610  -478.4134   859.5249 H6            1 RES     
   30480 H6        -742.3719  -480.1566   859.7877 H6            1 RES     
   30481 H6        -739.9420  -480.6701   859.4285 H6            1 RES     
   30482 H6        -740.7003  -479.8553   858.0099 H6            1 RES     
   30483 H6        -739.6281  -478.9172   859.0942 H6            1 RES     
   30484 H6        -742.9489  -473.2819   860.6504 H6            1 RES     
   30485 H6        -743.0295  -475.0193   860.2305 H6            1 RES     
   30486 H6        -740.4447  -474.7684   859.6585 H6            1 RES     
   30487 H6        -740.6528  -473.0350   859.9385 H6            1 RES     
   30488 H6        -740.7276  -473.6623   857.5698 H6            1 RES     
   30489 H6        -742.0996  -474.7919   857.8481 H6            1 RES     
   30490 H6        -742.2160  -471.7197   858.2571 H6            1 RES     
   30491 H6        -743.5652  -472.8885   858.5061 H6            1 RES     
   30492 H6        -743.5033  -473.5395   856.1024 H6            1 RES     
   30493 H6        -743.8803  -471.8051   856.4039 H6            1 RES     
   30494 H6        -741.1229  -472.8883   855.5372 H6            1 RES     
   30495 H6        -741.5250  -471.1599   855.8423 H6            1 RES     
   30496 H6        -741.4685  -471.7597   853.4299 H6            1 RES     
   30497 H6        -742.7494  -473.0004   853.6707 H6            1 RES     
   30498 H6        -744.3733  -471.1798   854.2982 H6            1 RES     
   30499 H6        -743.6369  -470.8835   852.6916 H6            1 RES     
   30500 H6        -743.0515  -469.9521   854.1208 H6            1 RES     
   30501 H4          14.0596    10.2987    11.7750 H4            1 RES     
   30502 H4        -741.1730  -469.9162   873.2090 H4            1 RES     
@<TRIPOS>BOND
       1        1        2 1
       2        1        8 1
       3        1       40 1
       4        2        3 1
       5        2        6 1
       6        3        4 1
       7        3        7 1
       8        4        5 1
       9        5        6 1
      10        5       16 1
      11        6       12 1
      12        7        8 1
      13        7       11 1
      14        8        9 1
      15        9       10 1
      16        9       13 1
      17       10       11 1
      18       10    30501 1
      19       14       15 1
      20       14       22 1
      21       15       16 1
      22       15       23 1
      23       16       17 1
      24       17       18 1
      25       17       21 1
      26       18       19 1
      27       19       20 1
      28       20       21 1
      29       21       22 1
      30       22      132 1
      31       24       25 1
      32       24       57 1
      33       24       58 1
      34       24       59 1
      35       25       26 1
      36       25       60 1
      37       25       61 1
      38       26       27 1
      39       26       62 1
      40       26       63 1
      41       27       28 1
      42       27       64 1
      43       27       65 1
      44       28       29 1
      45       28       66 1
      46       28       67 1
      47       29       30 1
      48       29       68 1
      49       29       69 1
      50       30       31 1
      51       30       70 1
      52       30       71 1
      53       31       32 1
      54       31       72 1
      55       31       73 1
      56       32       33 1
      57       32       39 1
      58       32       74 1
      59       33       34 1
      60       33       75 1
      61       33       76 1
      62       34       35 1
      63       34       77 1
      64       34       78 1
      65       35       36 1
      66       35       79 1
      67       35       80 1
      68       36       37 1
      69       36       81 1
      70       36       82 1
      71       37       38 1
      72       37       83 1
      73       37       84 1
      74       38       85 1
      75       38       86 1
      76       38       87 1
      77       39       40 1
      78       39       88 1
      79       39       89 1
      80       40       41 1
      81       41       42 1
      82       41       90 1
      83       41       91 1
      84       42       43 1
      85       42       49 1
      86       42       92 1
      87       43       44 1
      88       43       93 1
      89       43       94 1
      90       44       45 1
      91       44       95 1
      92       44       96 1
      93       45       46 1
      94       45       97 1
      95       45       98 1
      96       46       47 1
      97       46       99 1
      98       46      100 1
      99       47       48 1
     100       47      101 1
     101       47      102 1
     102       48      103 1
     103       48      104 1
     104       48      105 1
     105       49       50 1
     106       49      106 1
     107       49      107 1
     108       50       51 1
     109       50      108 1
     110       50      109 1
     111       51       52 1
     112       51      110 1
     113       51      111 1
     114       52       53 1
     115       52      112 1
     116       52      113 1
     117       53       54 1
     118       53      114 1
     119       53      115 1
     120       54       55 1
     121       54      116 1
     122       54      117 1
     123       55       56 1
     124       55      118 1
     125       55      119 1
     126       56      120 1
     127       56      121 1
     128       56      122 1
     129      123      124 1
     130      123      130 1
     131      123      162 1
     132      124      125 1
     133      124      128 1
     134      125      126 1
     135      125      129 1
     136      126      127 1
     137      127      128 1
     138      127      138 1
     139      128      134 1
     140      129      130 1
     141      129      133 1
     142      130      131 1
     143      131      132 1
     144      131      135 1
     145      132      133 1
     146      136      137 1
     147      136      144 1
     148      137      138 1
     149      137      145 1
     150      138      139 1
     151      139      140 1
     152      139      143 1
     153      140      141 1
     154      141      142 1
     155      142      143 1
     156      143      144 1
     157      144      254 1
     158      146      147 1
     159      146      179 1
     160      146      180 1
     161      146      181 1
     162      147      148 1
     163      147      182 1
     164      147      183 1
     165      148      149 1
     166      148      184 1
     167      148      185 1
     168      149      150 1
     169      149      186 1
     170      149      187 1
     171      150      151 1
     172      150      188 1
     173      150      189 1
     174      151      152 1
     175      151      190 1
     176      151      191 1
     177      152      153 1
     178      152      192 1
     179      152      193 1
     180      153      154 1
     181      153      194 1
     182      153      195 1
     183      154      155 1
     184      154      161 1
     185      154      196 1
     186      155      156 1
     187      155      197 1
     188      155      198 1
     189      156      157 1
     190      156      199 1
     191      156      200 1
     192      157      158 1
     193      157      201 1
     194      157      202 1
     195      158      159 1
     196      158      203 1
     197      158      204 1
     198      159      160 1
     199      159      205 1
     200      159      206 1
     201      160      207 1
     202      160      208 1
     203      160      209 1
     204      161      162 1
     205      161      210 1
     206      161      211 1
     207      162      163 1
     208      163      164 1
     209      163      212 1
     210      163      213 1
     211      164      165 1
     212      164      171 1
     213      164      214 1
     214      165      166 1
     215      165      215 1
     216      165      216 1
     217      166      167 1
     218      166      217 1
     219      166      218 1
     220      167      168 1
     221      167      219 1
     222      167      220 1
     223      168      169 1
     224      168      221 1
     225      168      222 1
     226      169      170 1
     227      169      223 1
     228      169      224 1
     229      170      225 1
     230      170      226 1
     231      170      227 1
     232      171      172 1
     233      171      228 1
     234      171      229 1
     235      172      173 1
     236      172      230 1
     237      172      231 1
     238      173      174 1
     239      173      232 1
     240      173      233 1
     241      174      175 1
     242      174      234 1
     243      174      235 1
     244      175      176 1
     245      175      236 1
     246      175      237 1
     247      176      177 1
     248      176      238 1
     249      176      239 1
     250      177      178 1
     251      177      240 1
     252      177      241 1
     253      178      242 1
     254      178      243 1
     255      178      244 1
     256      245      246 1
     257      245      252 1
     258      245      284 1
     259      246      247 1
     260      246      250 1
     261      247      248 1
     262      247      251 1
     263      248      249 1
     264      249      250 1
     265      249      260 1
     266      250      256 1
     267      251      252 1
     268      251      255 1
     269      252      253 1
     270      253      254 1
     271      253      257 1
     272      254      255 1
     273      258      259 1
     274      258      266 1
     275      259      260 1
     276      259      267 1
     277      260      261 1
     278      261      262 1
     279      261      265 1
     280      262      263 1
     281      263      264 1
     282      264      265 1
     283      265      266 1
     284      266      376 1
     285      268      269 1
     286      268      301 1
     287      268      302 1
     288      268      303 1
     289      269      270 1
     290      269      304 1
     291      269      305 1
     292      270      271 1
     293      270      306 1
     294      270      307 1
     295      271      272 1
     296      271      308 1
     297      271      309 1
     298      272      273 1
     299      272      310 1
     300      272      311 1
     301      273      274 1
     302      273      312 1
     303      273      313 1
     304      274      275 1
     305      274      314 1
     306      274      315 1
     307      275      276 1
     308      275      316 1
     309      275      317 1
     310      276      277 1
     311      276      283 1
     312      276      318 1
     313      277      278 1
     314      277      319 1
     315      277      320 1
     316      278      279 1
     317      278      321 1
     318      278      322 1
     319      279      280 1
     320      279      323 1
     321      279      324 1
     322      280      281 1
     323      280      325 1
     324      280      326 1
     325      281      282 1
     326      281      327 1
     327      281      328 1
     328      282      329 1
     329      282      330 1
     330      282      331 1
     331      283      284 1
     332      283      332 1
     333      283      333 1
     334      284      285 1
     335      285      286 1
     336      285      334 1
     337      285      335 1
     338      286      287 1
     339      286      293 1
     340      286      336 1
     341      287      288 1
     342      287      337 1
     343      287      338 1
     344      288      289 1
     345      288      339 1
     346      288      340 1
     347      289      290 1
     348      289      341 1
     349      289      342 1
     350      290      291 1
     351      290      343 1
     352      290      344 1
     353      291      292 1
     354      291      345 1
     355      291      346 1
     356      292      347 1
     357      292      348 1
     358      292      349 1
     359      293      294 1
     360      293      350 1
     361      293      351 1
     362      294      295 1
     363      294      352 1
     364      294      353 1
     365      295      296 1
     366      295      354 1
     367      295      355 1
     368      296      297 1
     369      296      356 1
     370      296      357 1
     371      297      298 1
     372      297      358 1
     373      297      359 1
     374      298      299 1
     375      298      360 1
     376      298      361 1
     377      299      300 1
     378      299      362 1
     379      299      363 1
     380      300      364 1
     381      300      365 1
     382      300      366 1
     383      367      368 1
     384      367      374 1
     385      367      406 1
     386      368      369 1
     387      368      372 1
     388      369      370 1
     389      369      373 1
     390      370      371 1
     391      371      372 1
     392      371      382 1
     393      372      378 1
     394      373      374 1
     395      373      377 1
     396      374      375 1
     397      375      376 1
     398      375      379 1
     399      376      377 1
     400      380      381 1
     401      380      388 1
     402      381      382 1
     403      381      389 1
     404      382      383 1
     405      383      384 1
     406      383      387 1
     407      384      385 1
     408      385      386 1
     409      386      387 1
     410      387      388 1
     411      388      498 1
     412      390      391 1
     413      390      423 1
     414      390      424 1
     415      390      425 1
     416      391      392 1
     417      391      426 1
     418      391      427 1
     419      392      393 1
     420      392      428 1
     421      392      429 1
     422      393      394 1
     423      393      430 1
     424      393      431 1
     425      394      395 1
     426      394      432 1
     427      394      433 1
     428      395      396 1
     429      395      434 1
     430      395      435 1
     431      396      397 1
     432      396      436 1
     433      396      437 1
     434      397      398 1
     435      397      438 1
     436      397      439 1
     437      398      399 1
     438      398      405 1
     439      398      440 1
     440      399      400 1
     441      399      441 1
     442      399      442 1
     443      400      401 1
     444      400      443 1
     445      400      444 1
     446      401      402 1
     447      401      445 1
     448      401      446 1
     449      402      403 1
     450      402      447 1
     451      402      448 1
     452      403      404 1
     453      403      449 1
     454      403      450 1
     455      404      451 1
     456      404      452 1
     457      404      453 1
     458      405      406 1
     459      405      454 1
     460      405      455 1
     461      406      407 1
     462      407      408 1
     463      407      456 1
     464      407      457 1
     465      408      409 1
     466      408      415 1
     467      408      458 1
     468      409      410 1
     469      409      459 1
     470      409      460 1
     471      410      411 1
     472      410      461 1
     473      410      462 1
     474      411      412 1
     475      411      463 1
     476      411      464 1
     477      412      413 1
     478      412      465 1
     479      412      466 1
     480      413      414 1
     481      413      467 1
     482      413      468 1
     483      414      469 1
     484      414      470 1
     485      414      471 1
     486      415      416 1
     487      415      472 1
     488      415      473 1
     489      416      417 1
     490      416      474 1
     491      416      475 1
     492      417      418 1
     493      417      476 1
     494      417      477 1
     495      418      419 1
     496      418      478 1
     497      418      479 1
     498      419      420 1
     499      419      480 1
     500      419      481 1
     501      420      421 1
     502      420      482 1
     503      420      483 1
     504      421      422 1
     505      421      484 1
     506      421      485 1
     507      422      486 1
     508      422      487 1
     509      422      488 1
     510      489      490 1
     511      489      496 1
     512      489      528 1
     513      490      491 1
     514      490      494 1
     515      491      492 1
     516      491      495 1
     517      492      493 1
     518      493      494 1
     519      493      504 1
     520      494      500 1
     521      495      496 1
     522      495      499 1
     523      496      497 1
     524      497      498 1
     525      497      501 1
     526      498      499 1
     527      502      503 1
     528      502      510 1
     529      503      504 1
     530      503      511 1
     531      504      505 1
     532      505      506 1
     533      505      509 1
     534      506      507 1
     535      507      508 1
     536      508      509 1
     537      509      510 1
     538      510      620 1
     539      512      513 1
     540      512      545 1
     541      512      546 1
     542      512      547 1
     543      513      514 1
     544      513      548 1
     545      513      549 1
     546      514      515 1
     547      514      550 1
     548      514      551 1
     549      515      516 1
     550      515      552 1
     551      515      553 1
     552      516      517 1
     553      516      554 1
     554      516      555 1
     555      517      518 1
     556      517      556 1
     557      517      557 1
     558      518      519 1
     559      518      558 1
     560      518      559 1
     561      519      520 1
     562      519      560 1
     563      519      561 1
     564      520      521 1
     565      520      527 1
     566      520      562 1
     567      521      522 1
     568      521      563 1
     569      521      564 1
     570      522      523 1
     571      522      565 1
     572      522      566 1
     573      523      524 1
     574      523      567 1
     575      523      568 1
     576      524      525 1
     577      524      569 1
     578      524      570 1
     579      525      526 1
     580      525      571 1
     581      525      572 1
     582      526      573 1
     583      526      574 1
     584      526      575 1
     585      527      528 1
     586      527      576 1
     587      527      577 1
     588      528      529 1
     589      529      530 1
     590      529      578 1
     591      529      579 1
     592      530      531 1
     593      530      537 1
     594      530      580 1
     595      531      532 1
     596      531      581 1
     597      531      582 1
     598      532      533 1
     599      532      583 1
     600      532      584 1
     601      533      534 1
     602      533      585 1
     603      533      586 1
     604      534      535 1
     605      534      587 1
     606      534      588 1
     607      535      536 1
     608      535      589 1
     609      535      590 1
     610      536      591 1
     611      536      592 1
     612      536      593 1
     613      537      538 1
     614      537      594 1
     615      537      595 1
     616      538      539 1
     617      538      596 1
     618      538      597 1
     619      539      540 1
     620      539      598 1
     621      539      599 1
     622      540      541 1
     623      540      600 1
     624      540      601 1
     625      541      542 1
     626      541      602 1
     627      541      603 1
     628      542      543 1
     629      542      604 1
     630      542      605 1
     631      543      544 1
     632      543      606 1
     633      543      607 1
     634      544      608 1
     635      544      609 1
     636      544      610 1
     637      611      612 1
     638      611      618 1
     639      611      650 1
     640      612      613 1
     641      612      616 1
     642      613      614 1
     643      613      617 1
     644      614      615 1
     645      615      616 1
     646      615      626 1
     647      616      622 1
     648      617      618 1
     649      617      621 1
     650      618      619 1
     651      619      620 1
     652      619      623 1
     653      620      621 1
     654      624      625 1
     655      624      632 1
     656      625      626 1
     657      625      633 1
     658      626      627 1
     659      627      628 1
     660      627      631 1
     661      628      629 1
     662      629      630 1
     663      630      631 1
     664      631      632 1
     665      632      742 1
     666      634      635 1
     667      634      667 1
     668      634      668 1
     669      634      669 1
     670      635      636 1
     671      635      670 1
     672      635      671 1
     673      636      637 1
     674      636      672 1
     675      636      673 1
     676      637      638 1
     677      637      674 1
     678      637      675 1
     679      638      639 1
     680      638      676 1
     681      638      677 1
     682      639      640 1
     683      639      678 1
     684      639      679 1
     685      640      641 1
     686      640      680 1
     687      640      681 1
     688      641      642 1
     689      641      682 1
     690      641      683 1
     691      642      643 1
     692      642      649 1
     693      642      684 1
     694      643      644 1
     695      643      685 1
     696      643      686 1
     697      644      645 1
     698      644      687 1
     699      644      688 1
     700      645      646 1
     701      645      689 1
     702      645      690 1
     703      646      647 1
     704      646      691 1
     705      646      692 1
     706      647      648 1
     707      647      693 1
     708      647      694 1
     709      648      695 1
     710      648      696 1
     711      648      697 1
     712      649      650 1
     713      649      698 1
     714      649      699 1
     715      650      651 1
     716      651      652 1
     717      651      700 1
     718      651      701 1
     719      652      653 1
     720      652      659 1
     721      652      702 1
     722      653      654 1
     723      653      703 1
     724      653      704 1
     725      654      655 1
     726      654      705 1
     727      654      706 1
     728      655      656 1
     729      655      707 1
     730      655      708 1
     731      656      657 1
     732      656      709 1
     733      656      710 1
     734      657      658 1
     735      657      711 1
     736      657      712 1
     737      658      713 1
     738      658      714 1
     739      658      715 1
     740      659      660 1
     741      659      716 1
     742      659      717 1
     743      660      661 1
     744      660      718 1
     745      660      719 1
     746      661      662 1
     747      661      720 1
     748      661      721 1
     749      662      663 1
     750      662      722 1
     751      662      723 1
     752      663      664 1
     753      663      724 1
     754      663      725 1
     755      664      665 1
     756      664      726 1
     757      664      727 1
     758      665      666 1
     759      665      728 1
     760      665      729 1
     761      666      730 1
     762      666      731 1
     763      666      732 1
     764      733      734 1
     765      733      740 1
     766      733      772 1
     767      734      735 1
     768      734      738 1
     769      735      736 1
     770      735      739 1
     771      736      737 1
     772      737      738 1
     773      737      748 1
     774      738      744 1
     775      739      740 1
     776      739      743 1
     777      740      741 1
     778      741      742 1
     779      741      745 1
     780      742      743 1
     781      746      747 1
     782      746      754 1
     783      747      748 1
     784      747      755 1
     785      748      749 1
     786      749      750 1
     787      749      753 1
     788      750      751 1
     789      751      752 1
     790      752      753 1
     791      753      754 1
     792      754      864 1
     793      756      757 1
     794      756      789 1
     795      756      790 1
     796      756      791 1
     797      757      758 1
     798      757      792 1
     799      757      793 1
     800      758      759 1
     801      758      794 1
     802      758      795 1
     803      759      760 1
     804      759      796 1
     805      759      797 1
     806      760      761 1
     807      760      798 1
     808      760      799 1
     809      761      762 1
     810      761      800 1
     811      761      801 1
     812      762      763 1
     813      762      802 1
     814      762      803 1
     815      763      764 1
     816      763      804 1
     817      763      805 1
     818      764      765 1
     819      764      771 1
     820      764      806 1
     821      765      766 1
     822      765      807 1
     823      765      808 1
     824      766      767 1
     825      766      809 1
     826      766      810 1
     827      767      768 1
     828      767      811 1
     829      767      812 1
     830      768      769 1
     831      768      813 1
     832      768      814 1
     833      769      770 1
     834      769      815 1
     835      769      816 1
     836      770      817 1
     837      770      818 1
     838      770      819 1
     839      771      772 1
     840      771      820 1
     841      771      821 1
     842      772      773 1
     843      773      774 1
     844      773      822 1
     845      773      823 1
     846      774      775 1
     847      774      781 1
     848      774      824 1
     849      775      776 1
     850      775      825 1
     851      775      826 1
     852      776      777 1
     853      776      827 1
     854      776      828 1
     855      777      778 1
     856      777      829 1
     857      777      830 1
     858      778      779 1
     859      778      831 1
     860      778      832 1
     861      779      780 1
     862      779      833 1
     863      779      834 1
     864      780      835 1
     865      780      836 1
     866      780      837 1
     867      781      782 1
     868      781      838 1
     869      781      839 1
     870      782      783 1
     871      782      840 1
     872      782      841 1
     873      783      784 1
     874      783      842 1
     875      783      843 1
     876      784      785 1
     877      784      844 1
     878      784      845 1
     879      785      786 1
     880      785      846 1
     881      785      847 1
     882      786      787 1
     883      786      848 1
     884      786      849 1
     885      787      788 1
     886      787      850 1
     887      787      851 1
     888      788      852 1
     889      788      853 1
     890      788      854 1
     891      855      856 1
     892      855      862 1
     893      855      894 1
     894      856      857 1
     895      856      860 1
     896      857      858 1
     897      857      861 1
     898      858      859 1
     899      859      860 1
     900      859      870 1
     901      860      866 1
     902      861      862 1
     903      861      865 1
     904      862      863 1
     905      863      864 1
     906      863      867 1
     907      864      865 1
     908      868      869 1
     909      868      876 1
     910      869      870 1
     911      869      877 1
     912      870      871 1
     913      871      872 1
     914      871      875 1
     915      872      873 1
     916      873      874 1
     917      874      875 1
     918      875      876 1
     919      876      986 1
     920      878      879 1
     921      878      911 1
     922      878      912 1
     923      878      913 1
     924      879      880 1
     925      879      914 1
     926      879      915 1
     927      880      881 1
     928      880      916 1
     929      880      917 1
     930      881      882 1
     931      881      918 1
     932      881      919 1
     933      882      883 1
     934      882      920 1
     935      882      921 1
     936      883      884 1
     937      883      922 1
     938      883      923 1
     939      884      885 1
     940      884      924 1
     941      884      925 1
     942      885      886 1
     943      885      926 1
     944      885      927 1
     945      886      887 1
     946      886      893 1
     947      886      928 1
     948      887      888 1
     949      887      929 1
     950      887      930 1
     951      888      889 1
     952      888      931 1
     953      888      932 1
     954      889      890 1
     955      889      933 1
     956      889      934 1
     957      890      891 1
     958      890      935 1
     959      890      936 1
     960      891      892 1
     961      891      937 1
     962      891      938 1
     963      892      939 1
     964      892      940 1
     965      892      941 1
     966      893      894 1
     967      893      942 1
     968      893      943 1
     969      894      895 1
     970      895      896 1
     971      895      944 1
     972      895      945 1
     973      896      897 1
     974      896      903 1
     975      896      946 1
     976      897      898 1
     977      897      947 1
     978      897      948 1
     979      898      899 1
     980      898      949 1
     981      898      950 1
     982      899      900 1
     983      899      951 1
     984      899      952 1
     985      900      901 1
     986      900      953 1
     987      900      954 1
     988      901      902 1
     989      901      955 1
     990      901      956 1
     991      902      957 1
     992      902      958 1
     993      902      959 1
     994      903      904 1
     995      903      960 1
     996      903      961 1
     997      904      905 1
     998      904      962 1
     999      904      963 1
    1000      905      906 1
    1001      905      964 1
    1002      905      965 1
    1003      906      907 1
    1004      906      966 1
    1005      906      967 1
    1006      907      908 1
    1007      907      968 1
    1008      907      969 1
    1009      908      909 1
    1010      908      970 1
    1011      908      971 1
    1012      909      910 1
    1013      909      972 1
    1014      909      973 1
    1015      910      974 1
    1016      910      975 1
    1017      910      976 1
    1018      977      978 1
    1019      977      984 1
    1020      977     1016 1
    1021      978      979 1
    1022      978      982 1
    1023      979      980 1
    1024      979      983 1
    1025      980      981 1
    1026      981      982 1
    1027      981      992 1
    1028      982      988 1
    1029      983      984 1
    1030      983      987 1
    1031      984      985 1
    1032      985      986 1
    1033      985      989 1
    1034      986      987 1
    1035      990      991 1
    1036      990      998 1
    1037      991      992 1
    1038      991      999 1
    1039      992      993 1
    1040      993      994 1
    1041      993      997 1
    1042      994      995 1
    1043      995      996 1
    1044      996      997 1
    1045      997      998 1
    1046      998     1108 1
    1047     1000     1001 1
    1048     1000     1033 1
    1049     1000     1034 1
    1050     1000     1035 1
    1051     1001     1002 1
    1052     1001     1036 1
    1053     1001     1037 1
    1054     1002     1003 1
    1055     1002     1038 1
    1056     1002     1039 1
    1057     1003     1004 1
    1058     1003     1040 1
    1059     1003     1041 1
    1060     1004     1005 1
    1061     1004     1042 1
    1062     1004     1043 1
    1063     1005     1006 1
    1064     1005     1044 1
    1065     1005     1045 1
    1066     1006     1007 1
    1067     1006     1046 1
    1068     1006     1047 1
    1069     1007     1008 1
    1070     1007     1048 1
    1071     1007     1049 1
    1072     1008     1009 1
    1073     1008     1015 1
    1074     1008     1050 1
    1075     1009     1010 1
    1076     1009     1051 1
    1077     1009     1052 1
    1078     1010     1011 1
    1079     1010     1053 1
    1080     1010     1054 1
    1081     1011     1012 1
    1082     1011     1055 1
    1083     1011     1056 1
    1084     1012     1013 1
    1085     1012     1057 1
    1086     1012     1058 1
    1087     1013     1014 1
    1088     1013     1059 1
    1089     1013     1060 1
    1090     1014     1061 1
    1091     1014     1062 1
    1092     1014     1063 1
    1093     1015     1016 1
    1094     1015     1064 1
    1095     1015     1065 1
    1096     1016     1017 1
    1097     1017     1018 1
    1098     1017     1066 1
    1099     1017     1067 1
    1100     1018     1019 1
    1101     1018     1025 1
    1102     1018     1068 1
    1103     1019     1020 1
    1104     1019     1069 1
    1105     1019     1070 1
    1106     1020     1021 1
    1107     1020     1071 1
    1108     1020     1072 1
    1109     1021     1022 1
    1110     1021     1073 1
    1111     1021     1074 1
    1112     1022     1023 1
    1113     1022     1075 1
    1114     1022     1076 1
    1115     1023     1024 1
    1116     1023     1077 1
    1117     1023     1078 1
    1118     1024     1079 1
    1119     1024     1080 1
    1120     1024     1081 1
    1121     1025     1026 1
    1122     1025     1082 1
    1123     1025     1083 1
    1124     1026     1027 1
    1125     1026     1084 1
    1126     1026     1085 1
    1127     1027     1028 1
    1128     1027     1086 1
    1129     1027     1087 1
    1130     1028     1029 1
    1131     1028     1088 1
    1132     1028     1089 1
    1133     1029     1030 1
    1134     1029     1090 1
    1135     1029     1091 1
    1136     1030     1031 1
    1137     1030     1092 1
    1138     1030     1093 1
    1139     1031     1032 1
    1140     1031     1094 1
    1141     1031     1095 1
    1142     1032     1096 1
    1143     1032     1097 1
    1144     1032     1098 1
    1145     1099     1100 1
    1146     1099     1106 1
    1147     1099     1138 1
    1148     1100     1101 1
    1149     1100     1104 1
    1150     1101     1102 1
    1151     1101     1105 1
    1152     1102     1103 1
    1153     1103     1104 1
    1154     1103     1114 1
    1155     1104     1110 1
    1156     1105     1106 1
    1157     1105     1109 1
    1158     1106     1107 1
    1159     1107     1108 1
    1160     1107     1111 1
    1161     1108     1109 1
    1162     1112     1113 1
    1163     1112     1120 1
    1164     1113     1114 1
    1165     1113     1121 1
    1166     1114     1115 1
    1167     1115     1116 1
    1168     1115     1119 1
    1169     1116     1117 1
    1170     1117     1118 1
    1171     1118     1119 1
    1172     1119     1120 1
    1173     1120     1230 1
    1174     1122     1123 1
    1175     1122     1155 1
    1176     1122     1156 1
    1177     1122     1157 1
    1178     1123     1124 1
    1179     1123     1158 1
    1180     1123     1159 1
    1181     1124     1125 1
    1182     1124     1160 1
    1183     1124     1161 1
    1184     1125     1126 1
    1185     1125     1162 1
    1186     1125     1163 1
    1187     1126     1127 1
    1188     1126     1164 1
    1189     1126     1165 1
    1190     1127     1128 1
    1191     1127     1166 1
    1192     1127     1167 1
    1193     1128     1129 1
    1194     1128     1168 1
    1195     1128     1169 1
    1196     1129     1130 1
    1197     1129     1170 1
    1198     1129     1171 1
    1199     1130     1131 1
    1200     1130     1137 1
    1201     1130     1172 1
    1202     1131     1132 1
    1203     1131     1173 1
    1204     1131     1174 1
    1205     1132     1133 1
    1206     1132     1175 1
    1207     1132     1176 1
    1208     1133     1134 1
    1209     1133     1177 1
    1210     1133     1178 1
    1211     1134     1135 1
    1212     1134     1179 1
    1213     1134     1180 1
    1214     1135     1136 1
    1215     1135     1181 1
    1216     1135     1182 1
    1217     1136     1183 1
    1218     1136     1184 1
    1219     1136     1185 1
    1220     1137     1138 1
    1221     1137     1186 1
    1222     1137     1187 1
    1223     1138     1139 1
    1224     1139     1140 1
    1225     1139     1188 1
    1226     1139     1189 1
    1227     1140     1141 1
    1228     1140     1147 1
    1229     1140     1190 1
    1230     1141     1142 1
    1231     1141     1191 1
    1232     1141     1192 1
    1233     1142     1143 1
    1234     1142     1193 1
    1235     1142     1194 1
    1236     1143     1144 1
    1237     1143     1195 1
    1238     1143     1196 1
    1239     1144     1145 1
    1240     1144     1197 1
    1241     1144     1198 1
    1242     1145     1146 1
    1243     1145     1199 1
    1244     1145     1200 1
    1245     1146     1201 1
    1246     1146     1202 1
    1247     1146     1203 1
    1248     1147     1148 1
    1249     1147     1204 1
    1250     1147     1205 1
    1251     1148     1149 1
    1252     1148     1206 1
    1253     1148     1207 1
    1254     1149     1150 1
    1255     1149     1208 1
    1256     1149     1209 1
    1257     1150     1151 1
    1258     1150     1210 1
    1259     1150     1211 1
    1260     1151     1152 1
    1261     1151     1212 1
    1262     1151     1213 1
    1263     1152     1153 1
    1264     1152     1214 1
    1265     1152     1215 1
    1266     1153     1154 1
    1267     1153     1216 1
    1268     1153     1217 1
    1269     1154     1218 1
    1270     1154     1219 1
    1271     1154     1220 1
    1272     1221     1222 1
    1273     1221     1228 1
    1274     1221     1260 1
    1275     1222     1223 1
    1276     1222     1226 1
    1277     1223     1224 1
    1278     1223     1227 1
    1279     1224     1225 1
    1280     1225     1226 1
    1281     1225     1236 1
    1282     1226     1232 1
    1283     1227     1228 1
    1284     1227     1231 1
    1285     1228     1229 1
    1286     1229     1230 1
    1287     1229     1233 1
    1288     1230     1231 1
    1289     1234     1235 1
    1290     1234     1242 1
    1291     1235     1236 1
    1292     1235     1243 1
    1293     1236     1237 1
    1294     1237     1238 1
    1295     1237     1241 1
    1296     1238     1239 1
    1297     1239     1240 1
    1298     1240     1241 1
    1299     1241     1242 1
    1300     1242     1352 1
    1301     1244     1245 1
    1302     1244     1277 1
    1303     1244     1278 1
    1304     1244     1279 1
    1305     1245     1246 1
    1306     1245     1280 1
    1307     1245     1281 1
    1308     1246     1247 1
    1309     1246     1282 1
    1310     1246     1283 1
    1311     1247     1248 1
    1312     1247     1284 1
    1313     1247     1285 1
    1314     1248     1249 1
    1315     1248     1286 1
    1316     1248     1287 1
    1317     1249     1250 1
    1318     1249     1288 1
    1319     1249     1289 1
    1320     1250     1251 1
    1321     1250     1290 1
    1322     1250     1291 1
    1323     1251     1252 1
    1324     1251     1292 1
    1325     1251     1293 1
    1326     1252     1253 1
    1327     1252     1259 1
    1328     1252     1294 1
    1329     1253     1254 1
    1330     1253     1295 1
    1331     1253     1296 1
    1332     1254     1255 1
    1333     1254     1297 1
    1334     1254     1298 1
    1335     1255     1256 1
    1336     1255     1299 1
    1337     1255     1300 1
    1338     1256     1257 1
    1339     1256     1301 1
    1340     1256     1302 1
    1341     1257     1258 1
    1342     1257     1303 1
    1343     1257     1304 1
    1344     1258     1305 1
    1345     1258     1306 1
    1346     1258     1307 1
    1347     1259     1260 1
    1348     1259     1308 1
    1349     1259     1309 1
    1350     1260     1261 1
    1351     1261     1262 1
    1352     1261     1310 1
    1353     1261     1311 1
    1354     1262     1263 1
    1355     1262     1269 1
    1356     1262     1312 1
    1357     1263     1264 1
    1358     1263     1313 1
    1359     1263     1314 1
    1360     1264     1265 1
    1361     1264     1315 1
    1362     1264     1316 1
    1363     1265     1266 1
    1364     1265     1317 1
    1365     1265     1318 1
    1366     1266     1267 1
    1367     1266     1319 1
    1368     1266     1320 1
    1369     1267     1268 1
    1370     1267     1321 1
    1371     1267     1322 1
    1372     1268     1323 1
    1373     1268     1324 1
    1374     1268     1325 1
    1375     1269     1270 1
    1376     1269     1326 1
    1377     1269     1327 1
    1378     1270     1271 1
    1379     1270     1328 1
    1380     1270     1329 1
    1381     1271     1272 1
    1382     1271     1330 1
    1383     1271     1331 1
    1384     1272     1273 1
    1385     1272     1332 1
    1386     1272     1333 1
    1387     1273     1274 1
    1388     1273     1334 1
    1389     1273     1335 1
    1390     1274     1275 1
    1391     1274     1336 1
    1392     1274     1337 1
    1393     1275     1276 1
    1394     1275     1338 1
    1395     1275     1339 1
    1396     1276     1340 1
    1397     1276     1341 1
    1398     1276     1342 1
    1399     1343     1344 1
    1400     1343     1350 1
    1401     1343     1382 1
    1402     1344     1345 1
    1403     1344     1348 1
    1404     1345     1346 1
    1405     1345     1349 1
    1406     1346     1347 1
    1407     1347     1348 1
    1408     1347     1358 1
    1409     1348     1354 1
    1410     1349     1350 1
    1411     1349     1353 1
    1412     1350     1351 1
    1413     1351     1352 1
    1414     1351     1355 1
    1415     1352     1353 1
    1416     1356     1357 1
    1417     1356     1364 1
    1418     1357     1358 1
    1419     1357     1365 1
    1420     1358     1359 1
    1421     1359     1360 1
    1422     1359     1363 1
    1423     1360     1361 1
    1424     1361     1362 1
    1425     1362     1363 1
    1426     1363     1364 1
    1427     1364     1474 1
    1428     1366     1367 1
    1429     1366     1399 1
    1430     1366     1400 1
    1431     1366     1401 1
    1432     1367     1368 1
    1433     1367     1402 1
    1434     1367     1403 1
    1435     1368     1369 1
    1436     1368     1404 1
    1437     1368     1405 1
    1438     1369     1370 1
    1439     1369     1406 1
    1440     1369     1407 1
    1441     1370     1371 1
    1442     1370     1408 1
    1443     1370     1409 1
    1444     1371     1372 1
    1445     1371     1410 1
    1446     1371     1411 1
    1447     1372     1373 1
    1448     1372     1412 1
    1449     1372     1413 1
    1450     1373     1374 1
    1451     1373     1414 1
    1452     1373     1415 1
    1453     1374     1375 1
    1454     1374     1381 1
    1455     1374     1416 1
    1456     1375     1376 1
    1457     1375     1417 1
    1458     1375     1418 1
    1459     1376     1377 1
    1460     1376     1419 1
    1461     1376     1420 1
    1462     1377     1378 1
    1463     1377     1421 1
    1464     1377     1422 1
    1465     1378     1379 1
    1466     1378     1423 1
    1467     1378     1424 1
    1468     1379     1380 1
    1469     1379     1425 1
    1470     1379     1426 1
    1471     1380     1427 1
    1472     1380     1428 1
    1473     1380     1429 1
    1474     1381     1382 1
    1475     1381     1430 1
    1476     1381     1431 1
    1477     1382     1383 1
    1478     1383     1384 1
    1479     1383     1432 1
    1480     1383     1433 1
    1481     1384     1385 1
    1482     1384     1391 1
    1483     1384     1434 1
    1484     1385     1386 1
    1485     1385     1435 1
    1486     1385     1436 1
    1487     1386     1387 1
    1488     1386     1437 1
    1489     1386     1438 1
    1490     1387     1388 1
    1491     1387     1439 1
    1492     1387     1440 1
    1493     1388     1389 1
    1494     1388     1441 1
    1495     1388     1442 1
    1496     1389     1390 1
    1497     1389     1443 1
    1498     1389     1444 1
    1499     1390     1445 1
    1500     1390     1446 1
    1501     1390     1447 1
    1502     1391     1392 1
    1503     1391     1448 1
    1504     1391     1449 1
    1505     1392     1393 1
    1506     1392     1450 1
    1507     1392     1451 1
    1508     1393     1394 1
    1509     1393     1452 1
    1510     1393     1453 1
    1511     1394     1395 1
    1512     1394     1454 1
    1513     1394     1455 1
    1514     1395     1396 1
    1515     1395     1456 1
    1516     1395     1457 1
    1517     1396     1397 1
    1518     1396     1458 1
    1519     1396     1459 1
    1520     1397     1398 1
    1521     1397     1460 1
    1522     1397     1461 1
    1523     1398     1462 1
    1524     1398     1463 1
    1525     1398     1464 1
    1526     1465     1466 1
    1527     1465     1472 1
    1528     1465     1504 1
    1529     1466     1467 1
    1530     1466     1470 1
    1531     1467     1468 1
    1532     1467     1471 1
    1533     1468     1469 1
    1534     1469     1470 1
    1535     1469     1480 1
    1536     1470     1476 1
    1537     1471     1472 1
    1538     1471     1475 1
    1539     1472     1473 1
    1540     1473     1474 1
    1541     1473     1477 1
    1542     1474     1475 1
    1543     1478     1479 1
    1544     1478     1486 1
    1545     1479     1480 1
    1546     1479     1487 1
    1547     1480     1481 1
    1548     1481     1482 1
    1549     1481     1485 1
    1550     1482     1483 1
    1551     1483     1484 1
    1552     1484     1485 1
    1553     1485     1486 1
    1554     1486     1596 1
    1555     1488     1489 1
    1556     1488     1521 1
    1557     1488     1522 1
    1558     1488     1523 1
    1559     1489     1490 1
    1560     1489     1524 1
    1561     1489     1525 1
    1562     1490     1491 1
    1563     1490     1526 1
    1564     1490     1527 1
    1565     1491     1492 1
    1566     1491     1528 1
    1567     1491     1529 1
    1568     1492     1493 1
    1569     1492     1530 1
    1570     1492     1531 1
    1571     1493     1494 1
    1572     1493     1532 1
    1573     1493     1533 1
    1574     1494     1495 1
    1575     1494     1534 1
    1576     1494     1535 1
    1577     1495     1496 1
    1578     1495     1536 1
    1579     1495     1537 1
    1580     1496     1497 1
    1581     1496     1503 1
    1582     1496     1538 1
    1583     1497     1498 1
    1584     1497     1539 1
    1585     1497     1540 1
    1586     1498     1499 1
    1587     1498     1541 1
    1588     1498     1542 1
    1589     1499     1500 1
    1590     1499     1543 1
    1591     1499     1544 1
    1592     1500     1501 1
    1593     1500     1545 1
    1594     1500     1546 1
    1595     1501     1502 1
    1596     1501     1547 1
    1597     1501     1548 1
    1598     1502     1549 1
    1599     1502     1550 1
    1600     1502     1551 1
    1601     1503     1504 1
    1602     1503     1552 1
    1603     1503     1553 1
    1604     1504     1505 1
    1605     1505     1506 1
    1606     1505     1554 1
    1607     1505     1555 1
    1608     1506     1507 1
    1609     1506     1513 1
    1610     1506     1556 1
    1611     1507     1508 1
    1612     1507     1557 1
    1613     1507     1558 1
    1614     1508     1509 1
    1615     1508     1559 1
    1616     1508     1560 1
    1617     1509     1510 1
    1618     1509     1561 1
    1619     1509     1562 1
    1620     1510     1511 1
    1621     1510     1563 1
    1622     1510     1564 1
    1623     1511     1512 1
    1624     1511     1565 1
    1625     1511     1566 1
    1626     1512     1567 1
    1627     1512     1568 1
    1628     1512     1569 1
    1629     1513     1514 1
    1630     1513     1570 1
    1631     1513     1571 1
    1632     1514     1515 1
    1633     1514     1572 1
    1634     1514     1573 1
    1635     1515     1516 1
    1636     1515     1574 1
    1637     1515     1575 1
    1638     1516     1517 1
    1639     1516     1576 1
    1640     1516     1577 1
    1641     1517     1518 1
    1642     1517     1578 1
    1643     1517     1579 1
    1644     1518     1519 1
    1645     1518     1580 1
    1646     1518     1581 1
    1647     1519     1520 1
    1648     1519     1582 1
    1649     1519     1583 1
    1650     1520     1584 1
    1651     1520     1585 1
    1652     1520     1586 1
    1653     1587     1588 1
    1654     1587     1594 1
    1655     1587     1626 1
    1656     1588     1589 1
    1657     1588     1592 1
    1658     1589     1590 1
    1659     1589     1593 1
    1660     1590     1591 1
    1661     1591     1592 1
    1662     1591     1602 1
    1663     1592     1598 1
    1664     1593     1594 1
    1665     1593     1597 1
    1666     1594     1595 1
    1667     1595     1596 1
    1668     1595     1599 1
    1669     1596     1597 1
    1670     1600     1601 1
    1671     1600     1608 1
    1672     1601     1602 1
    1673     1601     1609 1
    1674     1602     1603 1
    1675     1603     1604 1
    1676     1603     1607 1
    1677     1604     1605 1
    1678     1605     1606 1
    1679     1606     1607 1
    1680     1607     1608 1
    1681     1608     1718 1
    1682     1610     1611 1
    1683     1610     1643 1
    1684     1610     1644 1
    1685     1610     1645 1
    1686     1611     1612 1
    1687     1611     1646 1
    1688     1611     1647 1
    1689     1612     1613 1
    1690     1612     1648 1
    1691     1612     1649 1
    1692     1613     1614 1
    1693     1613     1650 1
    1694     1613     1651 1
    1695     1614     1615 1
    1696     1614     1652 1
    1697     1614     1653 1
    1698     1615     1616 1
    1699     1615     1654 1
    1700     1615     1655 1
    1701     1616     1617 1
    1702     1616     1656 1
    1703     1616     1657 1
    1704     1617     1618 1
    1705     1617     1658 1
    1706     1617     1659 1
    1707     1618     1619 1
    1708     1618     1625 1
    1709     1618     1660 1
    1710     1619     1620 1
    1711     1619     1661 1
    1712     1619     1662 1
    1713     1620     1621 1
    1714     1620     1663 1
    1715     1620     1664 1
    1716     1621     1622 1
    1717     1621     1665 1
    1718     1621     1666 1
    1719     1622     1623 1
    1720     1622     1667 1
    1721     1622     1668 1
    1722     1623     1624 1
    1723     1623     1669 1
    1724     1623     1670 1
    1725     1624     1671 1
    1726     1624     1672 1
    1727     1624     1673 1
    1728     1625     1626 1
    1729     1625     1674 1
    1730     1625     1675 1
    1731     1626     1627 1
    1732     1627     1628 1
    1733     1627     1676 1
    1734     1627     1677 1
    1735     1628     1629 1
    1736     1628     1635 1
    1737     1628     1678 1
    1738     1629     1630 1
    1739     1629     1679 1
    1740     1629     1680 1
    1741     1630     1631 1
    1742     1630     1681 1
    1743     1630     1682 1
    1744     1631     1632 1
    1745     1631     1683 1
    1746     1631     1684 1
    1747     1632     1633 1
    1748     1632     1685 1
    1749     1632     1686 1
    1750     1633     1634 1
    1751     1633     1687 1
    1752     1633     1688 1
    1753     1634     1689 1
    1754     1634     1690 1
    1755     1634     1691 1
    1756     1635     1636 1
    1757     1635     1692 1
    1758     1635     1693 1
    1759     1636     1637 1
    1760     1636     1694 1
    1761     1636     1695 1
    1762     1637     1638 1
    1763     1637     1696 1
    1764     1637     1697 1
    1765     1638     1639 1
    1766     1638     1698 1
    1767     1638     1699 1
    1768     1639     1640 1
    1769     1639     1700 1
    1770     1639     1701 1
    1771     1640     1641 1
    1772     1640     1702 1
    1773     1640     1703 1
    1774     1641     1642 1
    1775     1641     1704 1
    1776     1641     1705 1
    1777     1642     1706 1
    1778     1642     1707 1
    1779     1642     1708 1
    1780     1709     1710 1
    1781     1709     1716 1
    1782     1709     1748 1
    1783     1710     1711 1
    1784     1710     1714 1
    1785     1711     1712 1
    1786     1711     1715 1
    1787     1712     1713 1
    1788     1713     1714 1
    1789     1713     1724 1
    1790     1714     1720 1
    1791     1715     1716 1
    1792     1715     1719 1
    1793     1716     1717 1
    1794     1717     1718 1
    1795     1717     1721 1
    1796     1718     1719 1
    1797     1722     1723 1
    1798     1722     1730 1
    1799     1723     1724 1
    1800     1723     1731 1
    1801     1724     1725 1
    1802     1725     1726 1
    1803     1725     1729 1
    1804     1726     1727 1
    1805     1727     1728 1
    1806     1728     1729 1
    1807     1729     1730 1
    1808     1730     1840 1
    1809     1732     1733 1
    1810     1732     1765 1
    1811     1732     1766 1
    1812     1732     1767 1
    1813     1733     1734 1
    1814     1733     1768 1
    1815     1733     1769 1
    1816     1734     1735 1
    1817     1734     1770 1
    1818     1734     1771 1
    1819     1735     1736 1
    1820     1735     1772 1
    1821     1735     1773 1
    1822     1736     1737 1
    1823     1736     1774 1
    1824     1736     1775 1
    1825     1737     1738 1
    1826     1737     1776 1
    1827     1737     1777 1
    1828     1738     1739 1
    1829     1738     1778 1
    1830     1738     1779 1
    1831     1739     1740 1
    1832     1739     1780 1
    1833     1739     1781 1
    1834     1740     1741 1
    1835     1740     1747 1
    1836     1740     1782 1
    1837     1741     1742 1
    1838     1741     1783 1
    1839     1741     1784 1
    1840     1742     1743 1
    1841     1742     1785 1
    1842     1742     1786 1
    1843     1743     1744 1
    1844     1743     1787 1
    1845     1743     1788 1
    1846     1744     1745 1
    1847     1744     1789 1
    1848     1744     1790 1
    1849     1745     1746 1
    1850     1745     1791 1
    1851     1745     1792 1
    1852     1746     1793 1
    1853     1746     1794 1
    1854     1746     1795 1
    1855     1747     1748 1
    1856     1747     1796 1
    1857     1747     1797 1
    1858     1748     1749 1
    1859     1749     1750 1
    1860     1749     1798 1
    1861     1749     1799 1
    1862     1750     1751 1
    1863     1750     1757 1
    1864     1750     1800 1
    1865     1751     1752 1
    1866     1751     1801 1
    1867     1751     1802 1
    1868     1752     1753 1
    1869     1752     1803 1
    1870     1752     1804 1
    1871     1753     1754 1
    1872     1753     1805 1
    1873     1753     1806 1
    1874     1754     1755 1
    1875     1754     1807 1
    1876     1754     1808 1
    1877     1755     1756 1
    1878     1755     1809 1
    1879     1755     1810 1
    1880     1756     1811 1
    1881     1756     1812 1
    1882     1756     1813 1
    1883     1757     1758 1
    1884     1757     1814 1
    1885     1757     1815 1
    1886     1758     1759 1
    1887     1758     1816 1
    1888     1758     1817 1
    1889     1759     1760 1
    1890     1759     1818 1
    1891     1759     1819 1
    1892     1760     1761 1
    1893     1760     1820 1
    1894     1760     1821 1
    1895     1761     1762 1
    1896     1761     1822 1
    1897     1761     1823 1
    1898     1762     1763 1
    1899     1762     1824 1
    1900     1762     1825 1
    1901     1763     1764 1
    1902     1763     1826 1
    1903     1763     1827 1
    1904     1764     1828 1
    1905     1764     1829 1
    1906     1764     1830 1
    1907     1831     1832 1
    1908     1831     1838 1
    1909     1831     1870 1
    1910     1832     1833 1
    1911     1832     1836 1
    1912     1833     1834 1
    1913     1833     1837 1
    1914     1834     1835 1
    1915     1835     1836 1
    1916     1835     1846 1
    1917     1836     1842 1
    1918     1837     1838 1
    1919     1837     1841 1
    1920     1838     1839 1
    1921     1839     1840 1
    1922     1839     1843 1
    1923     1840     1841 1
    1924     1844     1845 1
    1925     1844     1852 1
    1926     1845     1846 1
    1927     1845     1853 1
    1928     1846     1847 1
    1929     1847     1848 1
    1930     1847     1851 1
    1931     1848     1849 1
    1932     1849     1850 1
    1933     1850     1851 1
    1934     1851     1852 1
    1935     1852     1962 1
    1936     1854     1855 1
    1937     1854     1887 1
    1938     1854     1888 1
    1939     1854     1889 1
    1940     1855     1856 1
    1941     1855     1890 1
    1942     1855     1891 1
    1943     1856     1857 1
    1944     1856     1892 1
    1945     1856     1893 1
    1946     1857     1858 1
    1947     1857     1894 1
    1948     1857     1895 1
    1949     1858     1859 1
    1950     1858     1896 1
    1951     1858     1897 1
    1952     1859     1860 1
    1953     1859     1898 1
    1954     1859     1899 1
    1955     1860     1861 1
    1956     1860     1900 1
    1957     1860     1901 1
    1958     1861     1862 1
    1959     1861     1902 1
    1960     1861     1903 1
    1961     1862     1863 1
    1962     1862     1869 1
    1963     1862     1904 1
    1964     1863     1864 1
    1965     1863     1905 1
    1966     1863     1906 1
    1967     1864     1865 1
    1968     1864     1907 1
    1969     1864     1908 1
    1970     1865     1866 1
    1971     1865     1909 1
    1972     1865     1910 1
    1973     1866     1867 1
    1974     1866     1911 1
    1975     1866     1912 1
    1976     1867     1868 1
    1977     1867     1913 1
    1978     1867     1914 1
    1979     1868     1915 1
    1980     1868     1916 1
    1981     1868     1917 1
    1982     1869     1870 1
    1983     1869     1918 1
    1984     1869     1919 1
    1985     1870     1871 1
    1986     1871     1872 1
    1987     1871     1920 1
    1988     1871     1921 1
    1989     1872     1873 1
    1990     1872     1879 1
    1991     1872     1922 1
    1992     1873     1874 1
    1993     1873     1923 1
    1994     1873     1924 1
    1995     1874     1875 1
    1996     1874     1925 1
    1997     1874     1926 1
    1998     1875     1876 1
    1999     1875     1927 1
    2000     1875     1928 1
    2001     1876     1877 1
    2002     1876     1929 1
    2003     1876     1930 1
    2004     1877     1878 1
    2005     1877     1931 1
    2006     1877     1932 1
    2007     1878     1933 1
    2008     1878     1934 1
    2009     1878     1935 1
    2010     1879     1880 1
    2011     1879     1936 1
    2012     1879     1937 1
    2013     1880     1881 1
    2014     1880     1938 1
    2015     1880     1939 1
    2016     1881     1882 1
    2017     1881     1940 1
    2018     1881     1941 1
    2019     1882     1883 1
    2020     1882     1942 1
    2021     1882     1943 1
    2022     1883     1884 1
    2023     1883     1944 1
    2024     1883     1945 1
    2025     1884     1885 1
    2026     1884     1946 1
    2027     1884     1947 1
    2028     1885     1886 1
    2029     1885     1948 1
    2030     1885     1949 1
    2031     1886     1950 1
    2032     1886     1951 1
    2033     1886     1952 1
    2034     1953     1954 1
    2035     1953     1960 1
    2036     1953     1992 1
    2037     1954     1955 1
    2038     1954     1958 1
    2039     1955     1956 1
    2040     1955     1959 1
    2041     1956     1957 1
    2042     1957     1958 1
    2043     1957     1968 1
    2044     1958     1964 1
    2045     1959     1960 1
    2046     1959     1963 1
    2047     1960     1961 1
    2048     1961     1962 1
    2049     1961     1965 1
    2050     1962     1963 1
    2051     1966     1967 1
    2052     1966     1974 1
    2053     1967     1968 1
    2054     1967     1975 1
    2055     1968     1969 1
    2056     1969     1970 1
    2057     1969     1973 1
    2058     1970     1971 1
    2059     1971     1972 1
    2060     1972     1973 1
    2061     1973     1974 1
    2062     1974     2084 1
    2063     1976     1977 1
    2064     1976     2009 1
    2065     1976     2010 1
    2066     1976     2011 1
    2067     1977     1978 1
    2068     1977     2012 1
    2069     1977     2013 1
    2070     1978     1979 1
    2071     1978     2014 1
    2072     1978     2015 1
    2073     1979     1980 1
    2074     1979     2016 1
    2075     1979     2017 1
    2076     1980     1981 1
    2077     1980     2018 1
    2078     1980     2019 1
    2079     1981     1982 1
    2080     1981     2020 1
    2081     1981     2021 1
    2082     1982     1983 1
    2083     1982     2022 1
    2084     1982     2023 1
    2085     1983     1984 1
    2086     1983     2024 1
    2087     1983     2025 1
    2088     1984     1985 1
    2089     1984     1991 1
    2090     1984     2026 1
    2091     1985     1986 1
    2092     1985     2027 1
    2093     1985     2028 1
    2094     1986     1987 1
    2095     1986     2029 1
    2096     1986     2030 1
    2097     1987     1988 1
    2098     1987     2031 1
    2099     1987     2032 1
    2100     1988     1989 1
    2101     1988     2033 1
    2102     1988     2034 1
    2103     1989     1990 1
    2104     1989     2035 1
    2105     1989     2036 1
    2106     1990     2037 1
    2107     1990     2038 1
    2108     1990     2039 1
    2109     1991     1992 1
    2110     1991     2040 1
    2111     1991     2041 1
    2112     1992     1993 1
    2113     1993     1994 1
    2114     1993     2042 1
    2115     1993     2043 1
    2116     1994     1995 1
    2117     1994     2001 1
    2118     1994     2044 1
    2119     1995     1996 1
    2120     1995     2045 1
    2121     1995     2046 1
    2122     1996     1997 1
    2123     1996     2047 1
    2124     1996     2048 1
    2125     1997     1998 1
    2126     1997     2049 1
    2127     1997     2050 1
    2128     1998     1999 1
    2129     1998     2051 1
    2130     1998     2052 1
    2131     1999     2000 1
    2132     1999     2053 1
    2133     1999     2054 1
    2134     2000     2055 1
    2135     2000     2056 1
    2136     2000     2057 1
    2137     2001     2002 1
    2138     2001     2058 1
    2139     2001     2059 1
    2140     2002     2003 1
    2141     2002     2060 1
    2142     2002     2061 1
    2143     2003     2004 1
    2144     2003     2062 1
    2145     2003     2063 1
    2146     2004     2005 1
    2147     2004     2064 1
    2148     2004     2065 1
    2149     2005     2006 1
    2150     2005     2066 1
    2151     2005     2067 1
    2152     2006     2007 1
    2153     2006     2068 1
    2154     2006     2069 1
    2155     2007     2008 1
    2156     2007     2070 1
    2157     2007     2071 1
    2158     2008     2072 1
    2159     2008     2073 1
    2160     2008     2074 1
    2161     2075     2076 1
    2162     2075     2082 1
    2163     2075     2114 1
    2164     2076     2077 1
    2165     2076     2080 1
    2166     2077     2078 1
    2167     2077     2081 1
    2168     2078     2079 1
    2169     2079     2080 1
    2170     2079     2090 1
    2171     2080     2086 1
    2172     2081     2082 1
    2173     2081     2085 1
    2174     2082     2083 1
    2175     2083     2084 1
    2176     2083     2087 1
    2177     2084     2085 1
    2178     2088     2089 1
    2179     2088     2096 1
    2180     2089     2090 1
    2181     2089     2097 1
    2182     2090     2091 1
    2183     2091     2092 1
    2184     2091     2095 1
    2185     2092     2093 1
    2186     2093     2094 1
    2187     2094     2095 1
    2188     2095     2096 1
    2189     2096     2206 1
    2190     2098     2099 1
    2191     2098     2131 1
    2192     2098     2132 1
    2193     2098     2133 1
    2194     2099     2100 1
    2195     2099     2134 1
    2196     2099     2135 1
    2197     2100     2101 1
    2198     2100     2136 1
    2199     2100     2137 1
    2200     2101     2102 1
    2201     2101     2138 1
    2202     2101     2139 1
    2203     2102     2103 1
    2204     2102     2140 1
    2205     2102     2141 1
    2206     2103     2104 1
    2207     2103     2142 1
    2208     2103     2143 1
    2209     2104     2105 1
    2210     2104     2144 1
    2211     2104     2145 1
    2212     2105     2106 1
    2213     2105     2146 1
    2214     2105     2147 1
    2215     2106     2107 1
    2216     2106     2113 1
    2217     2106     2148 1
    2218     2107     2108 1
    2219     2107     2149 1
    2220     2107     2150 1
    2221     2108     2109 1
    2222     2108     2151 1
    2223     2108     2152 1
    2224     2109     2110 1
    2225     2109     2153 1
    2226     2109     2154 1
    2227     2110     2111 1
    2228     2110     2155 1
    2229     2110     2156 1
    2230     2111     2112 1
    2231     2111     2157 1
    2232     2111     2158 1
    2233     2112     2159 1
    2234     2112     2160 1
    2235     2112     2161 1
    2236     2113     2114 1
    2237     2113     2162 1
    2238     2113     2163 1
    2239     2114     2115 1
    2240     2115     2116 1
    2241     2115     2164 1
    2242     2115     2165 1
    2243     2116     2117 1
    2244     2116     2123 1
    2245     2116     2166 1
    2246     2117     2118 1
    2247     2117     2167 1
    2248     2117     2168 1
    2249     2118     2119 1
    2250     2118     2169 1
    2251     2118     2170 1
    2252     2119     2120 1
    2253     2119     2171 1
    2254     2119     2172 1
    2255     2120     2121 1
    2256     2120     2173 1
    2257     2120     2174 1
    2258     2121     2122 1
    2259     2121     2175 1
    2260     2121     2176 1
    2261     2122     2177 1
    2262     2122     2178 1
    2263     2122     2179 1
    2264     2123     2124 1
    2265     2123     2180 1
    2266     2123     2181 1
    2267     2124     2125 1
    2268     2124     2182 1
    2269     2124     2183 1
    2270     2125     2126 1
    2271     2125     2184 1
    2272     2125     2185 1
    2273     2126     2127 1
    2274     2126     2186 1
    2275     2126     2187 1
    2276     2127     2128 1
    2277     2127     2188 1
    2278     2127     2189 1
    2279     2128     2129 1
    2280     2128     2190 1
    2281     2128     2191 1
    2282     2129     2130 1
    2283     2129     2192 1
    2284     2129     2193 1
    2285     2130     2194 1
    2286     2130     2195 1
    2287     2130     2196 1
    2288     2197     2198 1
    2289     2197     2204 1
    2290     2197     2236 1
    2291     2198     2199 1
    2292     2198     2202 1
    2293     2199     2200 1
    2294     2199     2203 1
    2295     2200     2201 1
    2296     2201     2202 1
    2297     2201     2212 1
    2298     2202     2208 1
    2299     2203     2204 1
    2300     2203     2207 1
    2301     2204     2205 1
    2302     2205     2206 1
    2303     2205     2209 1
    2304     2206     2207 1
    2305     2210     2211 1
    2306     2210     2218 1
    2307     2211     2212 1
    2308     2211     2219 1
    2309     2212     2213 1
    2310     2213     2214 1
    2311     2213     2217 1
    2312     2214     2215 1
    2313     2215     2216 1
    2314     2216     2217 1
    2315     2217     2218 1
    2316     2218     2328 1
    2317     2220     2221 1
    2318     2220     2253 1
    2319     2220     2254 1
    2320     2220     2255 1
    2321     2221     2222 1
    2322     2221     2256 1
    2323     2221     2257 1
    2324     2222     2223 1
    2325     2222     2258 1
    2326     2222     2259 1
    2327     2223     2224 1
    2328     2223     2260 1
    2329     2223     2261 1
    2330     2224     2225 1
    2331     2224     2262 1
    2332     2224     2263 1
    2333     2225     2226 1
    2334     2225     2264 1
    2335     2225     2265 1
    2336     2226     2227 1
    2337     2226     2266 1
    2338     2226     2267 1
    2339     2227     2228 1
    2340     2227     2268 1
    2341     2227     2269 1
    2342     2228     2229 1
    2343     2228     2235 1
    2344     2228     2270 1
    2345     2229     2230 1
    2346     2229     2271 1
    2347     2229     2272 1
    2348     2230     2231 1
    2349     2230     2273 1
    2350     2230     2274 1
    2351     2231     2232 1
    2352     2231     2275 1
    2353     2231     2276 1
    2354     2232     2233 1
    2355     2232     2277 1
    2356     2232     2278 1
    2357     2233     2234 1
    2358     2233     2279 1
    2359     2233     2280 1
    2360     2234     2281 1
    2361     2234     2282 1
    2362     2234     2283 1
    2363     2235     2236 1
    2364     2235     2284 1
    2365     2235     2285 1
    2366     2236     2237 1
    2367     2237     2238 1
    2368     2237     2286 1
    2369     2237     2287 1
    2370     2238     2239 1
    2371     2238     2245 1
    2372     2238     2288 1
    2373     2239     2240 1
    2374     2239     2289 1
    2375     2239     2290 1
    2376     2240     2241 1
    2377     2240     2291 1
    2378     2240     2292 1
    2379     2241     2242 1
    2380     2241     2293 1
    2381     2241     2294 1
    2382     2242     2243 1
    2383     2242     2295 1
    2384     2242     2296 1
    2385     2243     2244 1
    2386     2243     2297 1
    2387     2243     2298 1
    2388     2244     2299 1
    2389     2244     2300 1
    2390     2244     2301 1
    2391     2245     2246 1
    2392     2245     2302 1
    2393     2245     2303 1
    2394     2246     2247 1
    2395     2246     2304 1
    2396     2246     2305 1
    2397     2247     2248 1
    2398     2247     2306 1
    2399     2247     2307 1
    2400     2248     2249 1
    2401     2248     2308 1
    2402     2248     2309 1
    2403     2249     2250 1
    2404     2249     2310 1
    2405     2249     2311 1
    2406     2250     2251 1
    2407     2250     2312 1
    2408     2250     2313 1
    2409     2251     2252 1
    2410     2251     2314 1
    2411     2251     2315 1
    2412     2252     2316 1
    2413     2252     2317 1
    2414     2252     2318 1
    2415     2319     2320 1
    2416     2319     2326 1
    2417     2319     2358 1
    2418     2320     2321 1
    2419     2320     2324 1
    2420     2321     2322 1
    2421     2321     2325 1
    2422     2322     2323 1
    2423     2323     2324 1
    2424     2323     2334 1
    2425     2324     2330 1
    2426     2325     2326 1
    2427     2325     2329 1
    2428     2326     2327 1
    2429     2327     2328 1
    2430     2327     2331 1
    2431     2328     2329 1
    2432     2332     2333 1
    2433     2332     2340 1
    2434     2333     2334 1
    2435     2333     2341 1
    2436     2334     2335 1
    2437     2335     2336 1
    2438     2335     2339 1
    2439     2336     2337 1
    2440     2337     2338 1
    2441     2338     2339 1
    2442     2339     2340 1
    2443     2340     2450 1
    2444     2342     2343 1
    2445     2342     2375 1
    2446     2342     2376 1
    2447     2342     2377 1
    2448     2343     2344 1
    2449     2343     2378 1
    2450     2343     2379 1
    2451     2344     2345 1
    2452     2344     2380 1
    2453     2344     2381 1
    2454     2345     2346 1
    2455     2345     2382 1
    2456     2345     2383 1
    2457     2346     2347 1
    2458     2346     2384 1
    2459     2346     2385 1
    2460     2347     2348 1
    2461     2347     2386 1
    2462     2347     2387 1
    2463     2348     2349 1
    2464     2348     2388 1
    2465     2348     2389 1
    2466     2349     2350 1
    2467     2349     2390 1
    2468     2349     2391 1
    2469     2350     2351 1
    2470     2350     2357 1
    2471     2350     2392 1
    2472     2351     2352 1
    2473     2351     2393 1
    2474     2351     2394 1
    2475     2352     2353 1
    2476     2352     2395 1
    2477     2352     2396 1
    2478     2353     2354 1
    2479     2353     2397 1
    2480     2353     2398 1
    2481     2354     2355 1
    2482     2354     2399 1
    2483     2354     2400 1
    2484     2355     2356 1
    2485     2355     2401 1
    2486     2355     2402 1
    2487     2356     2403 1
    2488     2356     2404 1
    2489     2356     2405 1
    2490     2357     2358 1
    2491     2357     2406 1
    2492     2357     2407 1
    2493     2358     2359 1
    2494     2359     2360 1
    2495     2359     2408 1
    2496     2359     2409 1
    2497     2360     2361 1
    2498     2360     2367 1
    2499     2360     2410 1
    2500     2361     2362 1
    2501     2361     2411 1
    2502     2361     2412 1
    2503     2362     2363 1
    2504     2362     2413 1
    2505     2362     2414 1
    2506     2363     2364 1
    2507     2363     2415 1
    2508     2363     2416 1
    2509     2364     2365 1
    2510     2364     2417 1
    2511     2364     2418 1
    2512     2365     2366 1
    2513     2365     2419 1
    2514     2365     2420 1
    2515     2366     2421 1
    2516     2366     2422 1
    2517     2366     2423 1
    2518     2367     2368 1
    2519     2367     2424 1
    2520     2367     2425 1
    2521     2368     2369 1
    2522     2368     2426 1
    2523     2368     2427 1
    2524     2369     2370 1
    2525     2369     2428 1
    2526     2369     2429 1
    2527     2370     2371 1
    2528     2370     2430 1
    2529     2370     2431 1
    2530     2371     2372 1
    2531     2371     2432 1
    2532     2371     2433 1
    2533     2372     2373 1
    2534     2372     2434 1
    2535     2372     2435 1
    2536     2373     2374 1
    2537     2373     2436 1
    2538     2373     2437 1
    2539     2374     2438 1
    2540     2374     2439 1
    2541     2374     2440 1
    2542     2441     2442 1
    2543     2441     2448 1
    2544     2441     2480 1
    2545     2442     2443 1
    2546     2442     2446 1
    2547     2443     2444 1
    2548     2443     2447 1
    2549     2444     2445 1
    2550     2445     2446 1
    2551     2445     2456 1
    2552     2446     2452 1
    2553     2447     2448 1
    2554     2447     2451 1
    2555     2448     2449 1
    2556     2449     2450 1
    2557     2449     2453 1
    2558     2450     2451 1
    2559     2454     2455 1
    2560     2454     2462 1
    2561     2455     2456 1
    2562     2455     2463 1
    2563     2456     2457 1
    2564     2457     2458 1
    2565     2457     2461 1
    2566     2458     2459 1
    2567     2459     2460 1
    2568     2460     2461 1
    2569     2461     2462 1
    2570     2462     2572 1
    2571     2464     2465 1
    2572     2464     2497 1
    2573     2464     2498 1
    2574     2464     2499 1
    2575     2465     2466 1
    2576     2465     2500 1
    2577     2465     2501 1
    2578     2466     2467 1
    2579     2466     2502 1
    2580     2466     2503 1
    2581     2467     2468 1
    2582     2467     2504 1
    2583     2467     2505 1
    2584     2468     2469 1
    2585     2468     2506 1
    2586     2468     2507 1
    2587     2469     2470 1
    2588     2469     2508 1
    2589     2469     2509 1
    2590     2470     2471 1
    2591     2470     2510 1
    2592     2470     2511 1
    2593     2471     2472 1
    2594     2471     2512 1
    2595     2471     2513 1
    2596     2472     2473 1
    2597     2472     2479 1
    2598     2472     2514 1
    2599     2473     2474 1
    2600     2473     2515 1
    2601     2473     2516 1
    2602     2474     2475 1
    2603     2474     2517 1
    2604     2474     2518 1
    2605     2475     2476 1
    2606     2475     2519 1
    2607     2475     2520 1
    2608     2476     2477 1
    2609     2476     2521 1
    2610     2476     2522 1
    2611     2477     2478 1
    2612     2477     2523 1
    2613     2477     2524 1
    2614     2478     2525 1
    2615     2478     2526 1
    2616     2478     2527 1
    2617     2479     2480 1
    2618     2479     2528 1
    2619     2479     2529 1
    2620     2480     2481 1
    2621     2481     2482 1
    2622     2481     2530 1
    2623     2481     2531 1
    2624     2482     2483 1
    2625     2482     2489 1
    2626     2482     2532 1
    2627     2483     2484 1
    2628     2483     2533 1
    2629     2483     2534 1
    2630     2484     2485 1
    2631     2484     2535 1
    2632     2484     2536 1
    2633     2485     2486 1
    2634     2485     2537 1
    2635     2485     2538 1
    2636     2486     2487 1
    2637     2486     2539 1
    2638     2486     2540 1
    2639     2487     2488 1
    2640     2487     2541 1
    2641     2487     2542 1
    2642     2488     2543 1
    2643     2488     2544 1
    2644     2488     2545 1
    2645     2489     2490 1
    2646     2489     2546 1
    2647     2489     2547 1
    2648     2490     2491 1
    2649     2490     2548 1
    2650     2490     2549 1
    2651     2491     2492 1
    2652     2491     2550 1
    2653     2491     2551 1
    2654     2492     2493 1
    2655     2492     2552 1
    2656     2492     2553 1
    2657     2493     2494 1
    2658     2493     2554 1
    2659     2493     2555 1
    2660     2494     2495 1
    2661     2494     2556 1
    2662     2494     2557 1
    2663     2495     2496 1
    2664     2495     2558 1
    2665     2495     2559 1
    2666     2496     2560 1
    2667     2496     2561 1
    2668     2496     2562 1
    2669     2563     2564 1
    2670     2563     2570 1
    2671     2563     2602 1
    2672     2564     2565 1
    2673     2564     2568 1
    2674     2565     2566 1
    2675     2565     2569 1
    2676     2566     2567 1
    2677     2567     2568 1
    2678     2567     2578 1
    2679     2568     2574 1
    2680     2569     2570 1
    2681     2569     2573 1
    2682     2570     2571 1
    2683     2571     2572 1
    2684     2571     2575 1
    2685     2572     2573 1
    2686     2576     2577 1
    2687     2576     2584 1
    2688     2577     2578 1
    2689     2577     2585 1
    2690     2578     2579 1
    2691     2579     2580 1
    2692     2579     2583 1
    2693     2580     2581 1
    2694     2581     2582 1
    2695     2582     2583 1
    2696     2583     2584 1
    2697     2584     2694 1
    2698     2586     2587 1
    2699     2586     2619 1
    2700     2586     2620 1
    2701     2586     2621 1
    2702     2587     2588 1
    2703     2587     2622 1
    2704     2587     2623 1
    2705     2588     2589 1
    2706     2588     2624 1
    2707     2588     2625 1
    2708     2589     2590 1
    2709     2589     2626 1
    2710     2589     2627 1
    2711     2590     2591 1
    2712     2590     2628 1
    2713     2590     2629 1
    2714     2591     2592 1
    2715     2591     2630 1
    2716     2591     2631 1
    2717     2592     2593 1
    2718     2592     2632 1
    2719     2592     2633 1
    2720     2593     2594 1
    2721     2593     2634 1
    2722     2593     2635 1
    2723     2594     2595 1
    2724     2594     2601 1
    2725     2594     2636 1
    2726     2595     2596 1
    2727     2595     2637 1
    2728     2595     2638 1
    2729     2596     2597 1
    2730     2596     2639 1
    2731     2596     2640 1
    2732     2597     2598 1
    2733     2597     2641 1
    2734     2597     2642 1
    2735     2598     2599 1
    2736     2598     2643 1
    2737     2598     2644 1
    2738     2599     2600 1
    2739     2599     2645 1
    2740     2599     2646 1
    2741     2600     2647 1
    2742     2600     2648 1
    2743     2600     2649 1
    2744     2601     2602 1
    2745     2601     2650 1
    2746     2601     2651 1
    2747     2602     2603 1
    2748     2603     2604 1
    2749     2603     2652 1
    2750     2603     2653 1
    2751     2604     2605 1
    2752     2604     2611 1
    2753     2604     2654 1
    2754     2605     2606 1
    2755     2605     2655 1
    2756     2605     2656 1
    2757     2606     2607 1
    2758     2606     2657 1
    2759     2606     2658 1
    2760     2607     2608 1
    2761     2607     2659 1
    2762     2607     2660 1
    2763     2608     2609 1
    2764     2608     2661 1
    2765     2608     2662 1
    2766     2609     2610 1
    2767     2609     2663 1
    2768     2609     2664 1
    2769     2610     2665 1
    2770     2610     2666 1
    2771     2610     2667 1
    2772     2611     2612 1
    2773     2611     2668 1
    2774     2611     2669 1
    2775     2612     2613 1
    2776     2612     2670 1
    2777     2612     2671 1
    2778     2613     2614 1
    2779     2613     2672 1
    2780     2613     2673 1
    2781     2614     2615 1
    2782     2614     2674 1
    2783     2614     2675 1
    2784     2615     2616 1
    2785     2615     2676 1
    2786     2615     2677 1
    2787     2616     2617 1
    2788     2616     2678 1
    2789     2616     2679 1
    2790     2617     2618 1
    2791     2617     2680 1
    2792     2617     2681 1
    2793     2618     2682 1
    2794     2618     2683 1
    2795     2618     2684 1
    2796     2685     2686 1
    2797     2685     2692 1
    2798     2685     2724 1
    2799     2686     2687 1
    2800     2686     2690 1
    2801     2687     2688 1
    2802     2687     2691 1
    2803     2688     2689 1
    2804     2689     2690 1
    2805     2689     2700 1
    2806     2690     2696 1
    2807     2691     2692 1
    2808     2691     2695 1
    2809     2692     2693 1
    2810     2693     2694 1
    2811     2693     2697 1
    2812     2694     2695 1
    2813     2698     2699 1
    2814     2698     2706 1
    2815     2699     2700 1
    2816     2699     2707 1
    2817     2700     2701 1
    2818     2701     2702 1
    2819     2701     2705 1
    2820     2702     2703 1
    2821     2703     2704 1
    2822     2704     2705 1
    2823     2705     2706 1
    2824     2706     2816 1
    2825     2708     2709 1
    2826     2708     2741 1
    2827     2708     2742 1
    2828     2708     2743 1
    2829     2709     2710 1
    2830     2709     2744 1
    2831     2709     2745 1
    2832     2710     2711 1
    2833     2710     2746 1
    2834     2710     2747 1
    2835     2711     2712 1
    2836     2711     2748 1
    2837     2711     2749 1
    2838     2712     2713 1
    2839     2712     2750 1
    2840     2712     2751 1
    2841     2713     2714 1
    2842     2713     2752 1
    2843     2713     2753 1
    2844     2714     2715 1
    2845     2714     2754 1
    2846     2714     2755 1
    2847     2715     2716 1
    2848     2715     2756 1
    2849     2715     2757 1
    2850     2716     2717 1
    2851     2716     2723 1
    2852     2716     2758 1
    2853     2717     2718 1
    2854     2717     2759 1
    2855     2717     2760 1
    2856     2718     2719 1
    2857     2718     2761 1
    2858     2718     2762 1
    2859     2719     2720 1
    2860     2719     2763 1
    2861     2719     2764 1
    2862     2720     2721 1
    2863     2720     2765 1
    2864     2720     2766 1
    2865     2721     2722 1
    2866     2721     2767 1
    2867     2721     2768 1
    2868     2722     2769 1
    2869     2722     2770 1
    2870     2722     2771 1
    2871     2723     2724 1
    2872     2723     2772 1
    2873     2723     2773 1
    2874     2724     2725 1
    2875     2725     2726 1
    2876     2725     2774 1
    2877     2725     2775 1
    2878     2726     2727 1
    2879     2726     2733 1
    2880     2726     2776 1
    2881     2727     2728 1
    2882     2727     2777 1
    2883     2727     2778 1
    2884     2728     2729 1
    2885     2728     2779 1
    2886     2728     2780 1
    2887     2729     2730 1
    2888     2729     2781 1
    2889     2729     2782 1
    2890     2730     2731 1
    2891     2730     2783 1
    2892     2730     2784 1
    2893     2731     2732 1
    2894     2731     2785 1
    2895     2731     2786 1
    2896     2732     2787 1
    2897     2732     2788 1
    2898     2732     2789 1
    2899     2733     2734 1
    2900     2733     2790 1
    2901     2733     2791 1
    2902     2734     2735 1
    2903     2734     2792 1
    2904     2734     2793 1
    2905     2735     2736 1
    2906     2735     2794 1
    2907     2735     2795 1
    2908     2736     2737 1
    2909     2736     2796 1
    2910     2736     2797 1
    2911     2737     2738 1
    2912     2737     2798 1
    2913     2737     2799 1
    2914     2738     2739 1
    2915     2738     2800 1
    2916     2738     2801 1
    2917     2739     2740 1
    2918     2739     2802 1
    2919     2739     2803 1
    2920     2740     2804 1
    2921     2740     2805 1
    2922     2740     2806 1
    2923     2807     2808 1
    2924     2807     2814 1
    2925     2807     2846 1
    2926     2808     2809 1
    2927     2808     2812 1
    2928     2809     2810 1
    2929     2809     2813 1
    2930     2810     2811 1
    2931     2811     2812 1
    2932     2811     2822 1
    2933     2812     2818 1
    2934     2813     2814 1
    2935     2813     2817 1
    2936     2814     2815 1
    2937     2815     2816 1
    2938     2815     2819 1
    2939     2816     2817 1
    2940     2820     2821 1
    2941     2820     2828 1
    2942     2821     2822 1
    2943     2821     2829 1
    2944     2822     2823 1
    2945     2823     2824 1
    2946     2823     2827 1
    2947     2824     2825 1
    2948     2825     2826 1
    2949     2826     2827 1
    2950     2827     2828 1
    2951     2828     2938 1
    2952     2830     2831 1
    2953     2830     2863 1
    2954     2830     2864 1
    2955     2830     2865 1
    2956     2831     2832 1
    2957     2831     2866 1
    2958     2831     2867 1
    2959     2832     2833 1
    2960     2832     2868 1
    2961     2832     2869 1
    2962     2833     2834 1
    2963     2833     2870 1
    2964     2833     2871 1
    2965     2834     2835 1
    2966     2834     2872 1
    2967     2834     2873 1
    2968     2835     2836 1
    2969     2835     2874 1
    2970     2835     2875 1
    2971     2836     2837 1
    2972     2836     2876 1
    2973     2836     2877 1
    2974     2837     2838 1
    2975     2837     2878 1
    2976     2837     2879 1
    2977     2838     2839 1
    2978     2838     2845 1
    2979     2838     2880 1
    2980     2839     2840 1
    2981     2839     2881 1
    2982     2839     2882 1
    2983     2840     2841 1
    2984     2840     2883 1
    2985     2840     2884 1
    2986     2841     2842 1
    2987     2841     2885 1
    2988     2841     2886 1
    2989     2842     2843 1
    2990     2842     2887 1
    2991     2842     2888 1
    2992     2843     2844 1
    2993     2843     2889 1
    2994     2843     2890 1
    2995     2844     2891 1
    2996     2844     2892 1
    2997     2844     2893 1
    2998     2845     2846 1
    2999     2845     2894 1
    3000     2845     2895 1
    3001     2846     2847 1
    3002     2847     2848 1
    3003     2847     2896 1
    3004     2847     2897 1
    3005     2848     2849 1
    3006     2848     2855 1
    3007     2848     2898 1
    3008     2849     2850 1
    3009     2849     2899 1
    3010     2849     2900 1
    3011     2850     2851 1
    3012     2850     2901 1
    3013     2850     2902 1
    3014     2851     2852 1
    3015     2851     2903 1
    3016     2851     2904 1
    3017     2852     2853 1
    3018     2852     2905 1
    3019     2852     2906 1
    3020     2853     2854 1
    3021     2853     2907 1
    3022     2853     2908 1
    3023     2854     2909 1
    3024     2854     2910 1
    3025     2854     2911 1
    3026     2855     2856 1
    3027     2855     2912 1
    3028     2855     2913 1
    3029     2856     2857 1
    3030     2856     2914 1
    3031     2856     2915 1
    3032     2857     2858 1
    3033     2857     2916 1
    3034     2857     2917 1
    3035     2858     2859 1
    3036     2858     2918 1
    3037     2858     2919 1
    3038     2859     2860 1
    3039     2859     2920 1
    3040     2859     2921 1
    3041     2860     2861 1
    3042     2860     2922 1
    3043     2860     2923 1
    3044     2861     2862 1
    3045     2861     2924 1
    3046     2861     2925 1
    3047     2862     2926 1
    3048     2862     2927 1
    3049     2862     2928 1
    3050     2929     2930 1
    3051     2929     2936 1
    3052     2929     2968 1
    3053     2930     2931 1
    3054     2930     2934 1
    3055     2931     2932 1
    3056     2931     2935 1
    3057     2932     2933 1
    3058     2933     2934 1
    3059     2933     2944 1
    3060     2934     2940 1
    3061     2935     2936 1
    3062     2935     2939 1
    3063     2936     2937 1
    3064     2937     2938 1
    3065     2937     2941 1
    3066     2938     2939 1
    3067     2942     2943 1
    3068     2942     2950 1
    3069     2943     2944 1
    3070     2943     2951 1
    3071     2944     2945 1
    3072     2945     2946 1
    3073     2945     2949 1
    3074     2946     2947 1
    3075     2947     2948 1
    3076     2948     2949 1
    3077     2949     2950 1
    3078     2950     3060 1
    3079     2952     2953 1
    3080     2952     2985 1
    3081     2952     2986 1
    3082     2952     2987 1
    3083     2953     2954 1
    3084     2953     2988 1
    3085     2953     2989 1
    3086     2954     2955 1
    3087     2954     2990 1
    3088     2954     2991 1
    3089     2955     2956 1
    3090     2955     2992 1
    3091     2955     2993 1
    3092     2956     2957 1
    3093     2956     2994 1
    3094     2956     2995 1
    3095     2957     2958 1
    3096     2957     2996 1
    3097     2957     2997 1
    3098     2958     2959 1
    3099     2958     2998 1
    3100     2958     2999 1
    3101     2959     2960 1
    3102     2959     3000 1
    3103     2959     3001 1
    3104     2960     2961 1
    3105     2960     2967 1
    3106     2960     3002 1
    3107     2961     2962 1
    3108     2961     3003 1
    3109     2961     3004 1
    3110     2962     2963 1
    3111     2962     3005 1
    3112     2962     3006 1
    3113     2963     2964 1
    3114     2963     3007 1
    3115     2963     3008 1
    3116     2964     2965 1
    3117     2964     3009 1
    3118     2964     3010 1
    3119     2965     2966 1
    3120     2965     3011 1
    3121     2965     3012 1
    3122     2966     3013 1
    3123     2966     3014 1
    3124     2966     3015 1
    3125     2967     2968 1
    3126     2967     3016 1
    3127     2967     3017 1
    3128     2968     2969 1
    3129     2969     2970 1
    3130     2969     3018 1
    3131     2969     3019 1
    3132     2970     2971 1
    3133     2970     2977 1
    3134     2970     3020 1
    3135     2971     2972 1
    3136     2971     3021 1
    3137     2971     3022 1
    3138     2972     2973 1
    3139     2972     3023 1
    3140     2972     3024 1
    3141     2973     2974 1
    3142     2973     3025 1
    3143     2973     3026 1
    3144     2974     2975 1
    3145     2974     3027 1
    3146     2974     3028 1
    3147     2975     2976 1
    3148     2975     3029 1
    3149     2975     3030 1
    3150     2976     3031 1
    3151     2976     3032 1
    3152     2976     3033 1
    3153     2977     2978 1
    3154     2977     3034 1
    3155     2977     3035 1
    3156     2978     2979 1
    3157     2978     3036 1
    3158     2978     3037 1
    3159     2979     2980 1
    3160     2979     3038 1
    3161     2979     3039 1
    3162     2980     2981 1
    3163     2980     3040 1
    3164     2980     3041 1
    3165     2981     2982 1
    3166     2981     3042 1
    3167     2981     3043 1
    3168     2982     2983 1
    3169     2982     3044 1
    3170     2982     3045 1
    3171     2983     2984 1
    3172     2983     3046 1
    3173     2983     3047 1
    3174     2984     3048 1
    3175     2984     3049 1
    3176     2984     3050 1
    3177     3051     3052 1
    3178     3051     3058 1
    3179     3051     3090 1
    3180     3052     3053 1
    3181     3052     3056 1
    3182     3053     3054 1
    3183     3053     3057 1
    3184     3054     3055 1
    3185     3055     3056 1
    3186     3055     3066 1
    3187     3056     3062 1
    3188     3057     3058 1
    3189     3057     3061 1
    3190     3058     3059 1
    3191     3059     3060 1
    3192     3059     3063 1
    3193     3060     3061 1
    3194     3064     3065 1
    3195     3064     3072 1
    3196     3065     3066 1
    3197     3065     3073 1
    3198     3066     3067 1
    3199     3067     3068 1
    3200     3067     3071 1
    3201     3068     3069 1
    3202     3069     3070 1
    3203     3070     3071 1
    3204     3071     3072 1
    3205     3072     3182 1
    3206     3074     3075 1
    3207     3074     3107 1
    3208     3074     3108 1
    3209     3074     3109 1
    3210     3075     3076 1
    3211     3075     3110 1
    3212     3075     3111 1
    3213     3076     3077 1
    3214     3076     3112 1
    3215     3076     3113 1
    3216     3077     3078 1
    3217     3077     3114 1
    3218     3077     3115 1
    3219     3078     3079 1
    3220     3078     3116 1
    3221     3078     3117 1
    3222     3079     3080 1
    3223     3079     3118 1
    3224     3079     3119 1
    3225     3080     3081 1
    3226     3080     3120 1
    3227     3080     3121 1
    3228     3081     3082 1
    3229     3081     3122 1
    3230     3081     3123 1
    3231     3082     3083 1
    3232     3082     3089 1
    3233     3082     3124 1
    3234     3083     3084 1
    3235     3083     3125 1
    3236     3083     3126 1
    3237     3084     3085 1
    3238     3084     3127 1
    3239     3084     3128 1
    3240     3085     3086 1
    3241     3085     3129 1
    3242     3085     3130 1
    3243     3086     3087 1
    3244     3086     3131 1
    3245     3086     3132 1
    3246     3087     3088 1
    3247     3087     3133 1
    3248     3087     3134 1
    3249     3088     3135 1
    3250     3088     3136 1
    3251     3088     3137 1
    3252     3089     3090 1
    3253     3089     3138 1
    3254     3089     3139 1
    3255     3090     3091 1
    3256     3091     3092 1
    3257     3091     3140 1
    3258     3091     3141 1
    3259     3092     3093 1
    3260     3092     3099 1
    3261     3092     3142 1
    3262     3093     3094 1
    3263     3093     3143 1
    3264     3093     3144 1
    3265     3094     3095 1
    3266     3094     3145 1
    3267     3094     3146 1
    3268     3095     3096 1
    3269     3095     3147 1
    3270     3095     3148 1
    3271     3096     3097 1
    3272     3096     3149 1
    3273     3096     3150 1
    3274     3097     3098 1
    3275     3097     3151 1
    3276     3097     3152 1
    3277     3098     3153 1
    3278     3098     3154 1
    3279     3098     3155 1
    3280     3099     3100 1
    3281     3099     3156 1
    3282     3099     3157 1
    3283     3100     3101 1
    3284     3100     3158 1
    3285     3100     3159 1
    3286     3101     3102 1
    3287     3101     3160 1
    3288     3101     3161 1
    3289     3102     3103 1
    3290     3102     3162 1
    3291     3102     3163 1
    3292     3103     3104 1
    3293     3103     3164 1
    3294     3103     3165 1
    3295     3104     3105 1
    3296     3104     3166 1
    3297     3104     3167 1
    3298     3105     3106 1
    3299     3105     3168 1
    3300     3105     3169 1
    3301     3106     3170 1
    3302     3106     3171 1
    3303     3106     3172 1
    3304     3173     3174 1
    3305     3173     3180 1
    3306     3173     3212 1
    3307     3174     3175 1
    3308     3174     3178 1
    3309     3175     3176 1
    3310     3175     3179 1
    3311     3176     3177 1
    3312     3177     3178 1
    3313     3177     3188 1
    3314     3178     3184 1
    3315     3179     3180 1
    3316     3179     3183 1
    3317     3180     3181 1
    3318     3181     3182 1
    3319     3181     3185 1
    3320     3182     3183 1
    3321     3186     3187 1
    3322     3186     3194 1
    3323     3187     3188 1
    3324     3187     3195 1
    3325     3188     3189 1
    3326     3189     3190 1
    3327     3189     3193 1
    3328     3190     3191 1
    3329     3191     3192 1
    3330     3192     3193 1
    3331     3193     3194 1
    3332     3194     3304 1
    3333     3196     3197 1
    3334     3196     3229 1
    3335     3196     3230 1
    3336     3196     3231 1
    3337     3197     3198 1
    3338     3197     3232 1
    3339     3197     3233 1
    3340     3198     3199 1
    3341     3198     3234 1
    3342     3198     3235 1
    3343     3199     3200 1
    3344     3199     3236 1
    3345     3199     3237 1
    3346     3200     3201 1
    3347     3200     3238 1
    3348     3200     3239 1
    3349     3201     3202 1
    3350     3201     3240 1
    3351     3201     3241 1
    3352     3202     3203 1
    3353     3202     3242 1
    3354     3202     3243 1
    3355     3203     3204 1
    3356     3203     3244 1
    3357     3203     3245 1
    3358     3204     3205 1
    3359     3204     3211 1
    3360     3204     3246 1
    3361     3205     3206 1
    3362     3205     3247 1
    3363     3205     3248 1
    3364     3206     3207 1
    3365     3206     3249 1
    3366     3206     3250 1
    3367     3207     3208 1
    3368     3207     3251 1
    3369     3207     3252 1
    3370     3208     3209 1
    3371     3208     3253 1
    3372     3208     3254 1
    3373     3209     3210 1
    3374     3209     3255 1
    3375     3209     3256 1
    3376     3210     3257 1
    3377     3210     3258 1
    3378     3210     3259 1
    3379     3211     3212 1
    3380     3211     3260 1
    3381     3211     3261 1
    3382     3212     3213 1
    3383     3213     3214 1
    3384     3213     3262 1
    3385     3213     3263 1
    3386     3214     3215 1
    3387     3214     3221 1
    3388     3214     3264 1
    3389     3215     3216 1
    3390     3215     3265 1
    3391     3215     3266 1
    3392     3216     3217 1
    3393     3216     3267 1
    3394     3216     3268 1
    3395     3217     3218 1
    3396     3217     3269 1
    3397     3217     3270 1
    3398     3218     3219 1
    3399     3218     3271 1
    3400     3218     3272 1
    3401     3219     3220 1
    3402     3219     3273 1
    3403     3219     3274 1
    3404     3220     3275 1
    3405     3220     3276 1
    3406     3220     3277 1
    3407     3221     3222 1
    3408     3221     3278 1
    3409     3221     3279 1
    3410     3222     3223 1
    3411     3222     3280 1
    3412     3222     3281 1
    3413     3223     3224 1
    3414     3223     3282 1
    3415     3223     3283 1
    3416     3224     3225 1
    3417     3224     3284 1
    3418     3224     3285 1
    3419     3225     3226 1
    3420     3225     3286 1
    3421     3225     3287 1
    3422     3226     3227 1
    3423     3226     3288 1
    3424     3226     3289 1
    3425     3227     3228 1
    3426     3227     3290 1
    3427     3227     3291 1
    3428     3228     3292 1
    3429     3228     3293 1
    3430     3228     3294 1
    3431     3295     3296 1
    3432     3295     3302 1
    3433     3295     3334 1
    3434     3296     3297 1
    3435     3296     3300 1
    3436     3297     3298 1
    3437     3297     3301 1
    3438     3298     3299 1
    3439     3299     3300 1
    3440     3299     3310 1
    3441     3300     3306 1
    3442     3301     3302 1
    3443     3301     3305 1
    3444     3302     3303 1
    3445     3303     3304 1
    3446     3303     3307 1
    3447     3304     3305 1
    3448     3308     3309 1
    3449     3308     3316 1
    3450     3309     3310 1
    3451     3309     3317 1
    3452     3310     3311 1
    3453     3311     3312 1
    3454     3311     3315 1
    3455     3312     3313 1
    3456     3313     3314 1
    3457     3314     3315 1
    3458     3315     3316 1
    3459     3316     3426 1
    3460     3318     3319 1
    3461     3318     3351 1
    3462     3318     3352 1
    3463     3318     3353 1
    3464     3319     3320 1
    3465     3319     3354 1
    3466     3319     3355 1
    3467     3320     3321 1
    3468     3320     3356 1
    3469     3320     3357 1
    3470     3321     3322 1
    3471     3321     3358 1
    3472     3321     3359 1
    3473     3322     3323 1
    3474     3322     3360 1
    3475     3322     3361 1
    3476     3323     3324 1
    3477     3323     3362 1
    3478     3323     3363 1
    3479     3324     3325 1
    3480     3324     3364 1
    3481     3324     3365 1
    3482     3325     3326 1
    3483     3325     3366 1
    3484     3325     3367 1
    3485     3326     3327 1
    3486     3326     3333 1
    3487     3326     3368 1
    3488     3327     3328 1
    3489     3327     3369 1
    3490     3327     3370 1
    3491     3328     3329 1
    3492     3328     3371 1
    3493     3328     3372 1
    3494     3329     3330 1
    3495     3329     3373 1
    3496     3329     3374 1
    3497     3330     3331 1
    3498     3330     3375 1
    3499     3330     3376 1
    3500     3331     3332 1
    3501     3331     3377 1
    3502     3331     3378 1
    3503     3332     3379 1
    3504     3332     3380 1
    3505     3332     3381 1
    3506     3333     3334 1
    3507     3333     3382 1
    3508     3333     3383 1
    3509     3334     3335 1
    3510     3335     3336 1
    3511     3335     3384 1
    3512     3335     3385 1
    3513     3336     3337 1
    3514     3336     3343 1
    3515     3336     3386 1
    3516     3337     3338 1
    3517     3337     3387 1
    3518     3337     3388 1
    3519     3338     3339 1
    3520     3338     3389 1
    3521     3338     3390 1
    3522     3339     3340 1
    3523     3339     3391 1
    3524     3339     3392 1
    3525     3340     3341 1
    3526     3340     3393 1
    3527     3340     3394 1
    3528     3341     3342 1
    3529     3341     3395 1
    3530     3341     3396 1
    3531     3342     3397 1
    3532     3342     3398 1
    3533     3342     3399 1
    3534     3343     3344 1
    3535     3343     3400 1
    3536     3343     3401 1
    3537     3344     3345 1
    3538     3344     3402 1
    3539     3344     3403 1
    3540     3345     3346 1
    3541     3345     3404 1
    3542     3345     3405 1
    3543     3346     3347 1
    3544     3346     3406 1
    3545     3346     3407 1
    3546     3347     3348 1
    3547     3347     3408 1
    3548     3347     3409 1
    3549     3348     3349 1
    3550     3348     3410 1
    3551     3348     3411 1
    3552     3349     3350 1
    3553     3349     3412 1
    3554     3349     3413 1
    3555     3350     3414 1
    3556     3350     3415 1
    3557     3350     3416 1
    3558     3417     3418 1
    3559     3417     3424 1
    3560     3417     3456 1
    3561     3418     3419 1
    3562     3418     3422 1
    3563     3419     3420 1
    3564     3419     3423 1
    3565     3420     3421 1
    3566     3421     3422 1
    3567     3421     3432 1
    3568     3422     3428 1
    3569     3423     3424 1
    3570     3423     3427 1
    3571     3424     3425 1
    3572     3425     3426 1
    3573     3425     3429 1
    3574     3426     3427 1
    3575     3430     3431 1
    3576     3430     3438 1
    3577     3431     3432 1
    3578     3431     3439 1
    3579     3432     3433 1
    3580     3433     3434 1
    3581     3433     3437 1
    3582     3434     3435 1
    3583     3435     3436 1
    3584     3436     3437 1
    3585     3437     3438 1
    3586     3438     3548 1
    3587     3440     3441 1
    3588     3440     3473 1
    3589     3440     3474 1
    3590     3440     3475 1
    3591     3441     3442 1
    3592     3441     3476 1
    3593     3441     3477 1
    3594     3442     3443 1
    3595     3442     3478 1
    3596     3442     3479 1
    3597     3443     3444 1
    3598     3443     3480 1
    3599     3443     3481 1
    3600     3444     3445 1
    3601     3444     3482 1
    3602     3444     3483 1
    3603     3445     3446 1
    3604     3445     3484 1
    3605     3445     3485 1
    3606     3446     3447 1
    3607     3446     3486 1
    3608     3446     3487 1
    3609     3447     3448 1
    3610     3447     3488 1
    3611     3447     3489 1
    3612     3448     3449 1
    3613     3448     3455 1
    3614     3448     3490 1
    3615     3449     3450 1
    3616     3449     3491 1
    3617     3449     3492 1
    3618     3450     3451 1
    3619     3450     3493 1
    3620     3450     3494 1
    3621     3451     3452 1
    3622     3451     3495 1
    3623     3451     3496 1
    3624     3452     3453 1
    3625     3452     3497 1
    3626     3452     3498 1
    3627     3453     3454 1
    3628     3453     3499 1
    3629     3453     3500 1
    3630     3454     3501 1
    3631     3454     3502 1
    3632     3454     3503 1
    3633     3455     3456 1
    3634     3455     3504 1
    3635     3455     3505 1
    3636     3456     3457 1
    3637     3457     3458 1
    3638     3457     3506 1
    3639     3457     3507 1
    3640     3458     3459 1
    3641     3458     3465 1
    3642     3458     3508 1
    3643     3459     3460 1
    3644     3459     3509 1
    3645     3459     3510 1
    3646     3460     3461 1
    3647     3460     3511 1
    3648     3460     3512 1
    3649     3461     3462 1
    3650     3461     3513 1
    3651     3461     3514 1
    3652     3462     3463 1
    3653     3462     3515 1
    3654     3462     3516 1
    3655     3463     3464 1
    3656     3463     3517 1
    3657     3463     3518 1
    3658     3464     3519 1
    3659     3464     3520 1
    3660     3464     3521 1
    3661     3465     3466 1
    3662     3465     3522 1
    3663     3465     3523 1
    3664     3466     3467 1
    3665     3466     3524 1
    3666     3466     3525 1
    3667     3467     3468 1
    3668     3467     3526 1
    3669     3467     3527 1
    3670     3468     3469 1
    3671     3468     3528 1
    3672     3468     3529 1
    3673     3469     3470 1
    3674     3469     3530 1
    3675     3469     3531 1
    3676     3470     3471 1
    3677     3470     3532 1
    3678     3470     3533 1
    3679     3471     3472 1
    3680     3471     3534 1
    3681     3471     3535 1
    3682     3472     3536 1
    3683     3472     3537 1
    3684     3472     3538 1
    3685     3539     3540 1
    3686     3539     3546 1
    3687     3539     3578 1
    3688     3540     3541 1
    3689     3540     3544 1
    3690     3541     3542 1
    3691     3541     3545 1
    3692     3542     3543 1
    3693     3543     3544 1
    3694     3543     3554 1
    3695     3544     3550 1
    3696     3545     3546 1
    3697     3545     3549 1
    3698     3546     3547 1
    3699     3547     3548 1
    3700     3547     3551 1
    3701     3548     3549 1
    3702     3552     3553 1
    3703     3552     3560 1
    3704     3553     3554 1
    3705     3553     3561 1
    3706     3554     3555 1
    3707     3555     3556 1
    3708     3555     3559 1
    3709     3556     3557 1
    3710     3557     3558 1
    3711     3558     3559 1
    3712     3559     3560 1
    3713     3560     3670 1
    3714     3562     3563 1
    3715     3562     3595 1
    3716     3562     3596 1
    3717     3562     3597 1
    3718     3563     3564 1
    3719     3563     3598 1
    3720     3563     3599 1
    3721     3564     3565 1
    3722     3564     3600 1
    3723     3564     3601 1
    3724     3565     3566 1
    3725     3565     3602 1
    3726     3565     3603 1
    3727     3566     3567 1
    3728     3566     3604 1
    3729     3566     3605 1
    3730     3567     3568 1
    3731     3567     3606 1
    3732     3567     3607 1
    3733     3568     3569 1
    3734     3568     3608 1
    3735     3568     3609 1
    3736     3569     3570 1
    3737     3569     3610 1
    3738     3569     3611 1
    3739     3570     3571 1
    3740     3570     3577 1
    3741     3570     3612 1
    3742     3571     3572 1
    3743     3571     3613 1
    3744     3571     3614 1
    3745     3572     3573 1
    3746     3572     3615 1
    3747     3572     3616 1
    3748     3573     3574 1
    3749     3573     3617 1
    3750     3573     3618 1
    3751     3574     3575 1
    3752     3574     3619 1
    3753     3574     3620 1
    3754     3575     3576 1
    3755     3575     3621 1
    3756     3575     3622 1
    3757     3576     3623 1
    3758     3576     3624 1
    3759     3576     3625 1
    3760     3577     3578 1
    3761     3577     3626 1
    3762     3577     3627 1
    3763     3578     3579 1
    3764     3579     3580 1
    3765     3579     3628 1
    3766     3579     3629 1
    3767     3580     3581 1
    3768     3580     3587 1
    3769     3580     3630 1
    3770     3581     3582 1
    3771     3581     3631 1
    3772     3581     3632 1
    3773     3582     3583 1
    3774     3582     3633 1
    3775     3582     3634 1
    3776     3583     3584 1
    3777     3583     3635 1
    3778     3583     3636 1
    3779     3584     3585 1
    3780     3584     3637 1
    3781     3584     3638 1
    3782     3585     3586 1
    3783     3585     3639 1
    3784     3585     3640 1
    3785     3586     3641 1
    3786     3586     3642 1
    3787     3586     3643 1
    3788     3587     3588 1
    3789     3587     3644 1
    3790     3587     3645 1
    3791     3588     3589 1
    3792     3588     3646 1
    3793     3588     3647 1
    3794     3589     3590 1
    3795     3589     3648 1
    3796     3589     3649 1
    3797     3590     3591 1
    3798     3590     3650 1
    3799     3590     3651 1
    3800     3591     3592 1
    3801     3591     3652 1
    3802     3591     3653 1
    3803     3592     3593 1
    3804     3592     3654 1
    3805     3592     3655 1
    3806     3593     3594 1
    3807     3593     3656 1
    3808     3593     3657 1
    3809     3594     3658 1
    3810     3594     3659 1
    3811     3594     3660 1
    3812     3661     3662 1
    3813     3661     3668 1
    3814     3661     3700 1
    3815     3662     3663 1
    3816     3662     3666 1
    3817     3663     3664 1
    3818     3663     3667 1
    3819     3664     3665 1
    3820     3665     3666 1
    3821     3665     3676 1
    3822     3666     3672 1
    3823     3667     3668 1
    3824     3667     3671 1
    3825     3668     3669 1
    3826     3669     3670 1
    3827     3669     3673 1
    3828     3670     3671 1
    3829     3674     3675 1
    3830     3674     3682 1
    3831     3675     3676 1
    3832     3675     3683 1
    3833     3676     3677 1
    3834     3677     3678 1
    3835     3677     3681 1
    3836     3678     3679 1
    3837     3679     3680 1
    3838     3680     3681 1
    3839     3681     3682 1
    3840     3682     3792 1
    3841     3684     3685 1
    3842     3684     3717 1
    3843     3684     3718 1
    3844     3684     3719 1
    3845     3685     3686 1
    3846     3685     3720 1
    3847     3685     3721 1
    3848     3686     3687 1
    3849     3686     3722 1
    3850     3686     3723 1
    3851     3687     3688 1
    3852     3687     3724 1
    3853     3687     3725 1
    3854     3688     3689 1
    3855     3688     3726 1
    3856     3688     3727 1
    3857     3689     3690 1
    3858     3689     3728 1
    3859     3689     3729 1
    3860     3690     3691 1
    3861     3690     3730 1
    3862     3690     3731 1
    3863     3691     3692 1
    3864     3691     3732 1
    3865     3691     3733 1
    3866     3692     3693 1
    3867     3692     3699 1
    3868     3692     3734 1
    3869     3693     3694 1
    3870     3693     3735 1
    3871     3693     3736 1
    3872     3694     3695 1
    3873     3694     3737 1
    3874     3694     3738 1
    3875     3695     3696 1
    3876     3695     3739 1
    3877     3695     3740 1
    3878     3696     3697 1
    3879     3696     3741 1
    3880     3696     3742 1
    3881     3697     3698 1
    3882     3697     3743 1
    3883     3697     3744 1
    3884     3698     3745 1
    3885     3698     3746 1
    3886     3698     3747 1
    3887     3699     3700 1
    3888     3699     3748 1
    3889     3699     3749 1
    3890     3700     3701 1
    3891     3701     3702 1
    3892     3701     3750 1
    3893     3701     3751 1
    3894     3702     3703 1
    3895     3702     3709 1
    3896     3702     3752 1
    3897     3703     3704 1
    3898     3703     3753 1
    3899     3703     3754 1
    3900     3704     3705 1
    3901     3704     3755 1
    3902     3704     3756 1
    3903     3705     3706 1
    3904     3705     3757 1
    3905     3705     3758 1
    3906     3706     3707 1
    3907     3706     3759 1
    3908     3706     3760 1
    3909     3707     3708 1
    3910     3707     3761 1
    3911     3707     3762 1
    3912     3708     3763 1
    3913     3708     3764 1
    3914     3708     3765 1
    3915     3709     3710 1
    3916     3709     3766 1
    3917     3709     3767 1
    3918     3710     3711 1
    3919     3710     3768 1
    3920     3710     3769 1
    3921     3711     3712 1
    3922     3711     3770 1
    3923     3711     3771 1
    3924     3712     3713 1
    3925     3712     3772 1
    3926     3712     3773 1
    3927     3713     3714 1
    3928     3713     3774 1
    3929     3713     3775 1
    3930     3714     3715 1
    3931     3714     3776 1
    3932     3714     3777 1
    3933     3715     3716 1
    3934     3715     3778 1
    3935     3715     3779 1
    3936     3716     3780 1
    3937     3716     3781 1
    3938     3716     3782 1
    3939     3783     3784 1
    3940     3783     3790 1
    3941     3783     3822 1
    3942     3784     3785 1
    3943     3784     3788 1
    3944     3785     3786 1
    3945     3785     3789 1
    3946     3786     3787 1
    3947     3787     3788 1
    3948     3787     3798 1
    3949     3788     3794 1
    3950     3789     3790 1
    3951     3789     3793 1
    3952     3790     3791 1
    3953     3791     3792 1
    3954     3791     3795 1
    3955     3792     3793 1
    3956     3796     3797 1
    3957     3796     3804 1
    3958     3797     3798 1
    3959     3797     3805 1
    3960     3798     3799 1
    3961     3799     3800 1
    3962     3799     3803 1
    3963     3800     3801 1
    3964     3801     3802 1
    3965     3802     3803 1
    3966     3803     3804 1
    3967     3804     3914 1
    3968     3806     3807 1
    3969     3806     3839 1
    3970     3806     3840 1
    3971     3806     3841 1
    3972     3807     3808 1
    3973     3807     3842 1
    3974     3807     3843 1
    3975     3808     3809 1
    3976     3808     3844 1
    3977     3808     3845 1
    3978     3809     3810 1
    3979     3809     3846 1
    3980     3809     3847 1
    3981     3810     3811 1
    3982     3810     3848 1
    3983     3810     3849 1
    3984     3811     3812 1
    3985     3811     3850 1
    3986     3811     3851 1
    3987     3812     3813 1
    3988     3812     3852 1
    3989     3812     3853 1
    3990     3813     3814 1
    3991     3813     3854 1
    3992     3813     3855 1
    3993     3814     3815 1
    3994     3814     3821 1
    3995     3814     3856 1
    3996     3815     3816 1
    3997     3815     3857 1
    3998     3815     3858 1
    3999     3816     3817 1
    4000     3816     3859 1
    4001     3816     3860 1
    4002     3817     3818 1
    4003     3817     3861 1
    4004     3817     3862 1
    4005     3818     3819 1
    4006     3818     3863 1
    4007     3818     3864 1
    4008     3819     3820 1
    4009     3819     3865 1
    4010     3819     3866 1
    4011     3820     3867 1
    4012     3820     3868 1
    4013     3820     3869 1
    4014     3821     3822 1
    4015     3821     3870 1
    4016     3821     3871 1
    4017     3822     3823 1
    4018     3823     3824 1
    4019     3823     3872 1
    4020     3823     3873 1
    4021     3824     3825 1
    4022     3824     3831 1
    4023     3824     3874 1
    4024     3825     3826 1
    4025     3825     3875 1
    4026     3825     3876 1
    4027     3826     3827 1
    4028     3826     3877 1
    4029     3826     3878 1
    4030     3827     3828 1
    4031     3827     3879 1
    4032     3827     3880 1
    4033     3828     3829 1
    4034     3828     3881 1
    4035     3828     3882 1
    4036     3829     3830 1
    4037     3829     3883 1
    4038     3829     3884 1
    4039     3830     3885 1
    4040     3830     3886 1
    4041     3830     3887 1
    4042     3831     3832 1
    4043     3831     3888 1
    4044     3831     3889 1
    4045     3832     3833 1
    4046     3832     3890 1
    4047     3832     3891 1
    4048     3833     3834 1
    4049     3833     3892 1
    4050     3833     3893 1
    4051     3834     3835 1
    4052     3834     3894 1
    4053     3834     3895 1
    4054     3835     3836 1
    4055     3835     3896 1
    4056     3835     3897 1
    4057     3836     3837 1
    4058     3836     3898 1
    4059     3836     3899 1
    4060     3837     3838 1
    4061     3837     3900 1
    4062     3837     3901 1
    4063     3838     3902 1
    4064     3838     3903 1
    4065     3838     3904 1
    4066     3905     3906 1
    4067     3905     3912 1
    4068     3905     3944 1
    4069     3906     3907 1
    4070     3906     3910 1
    4071     3907     3908 1
    4072     3907     3911 1
    4073     3908     3909 1
    4074     3909     3910 1
    4075     3909     3920 1
    4076     3910     3916 1
    4077     3911     3912 1
    4078     3911     3915 1
    4079     3912     3913 1
    4080     3913     3914 1
    4081     3913     3917 1
    4082     3914     3915 1
    4083     3918     3919 1
    4084     3918     3926 1
    4085     3919     3920 1
    4086     3919     3927 1
    4087     3920     3921 1
    4088     3921     3922 1
    4089     3921     3925 1
    4090     3922     3923 1
    4091     3923     3924 1
    4092     3924     3925 1
    4093     3925     3926 1
    4094     3926     4036 1
    4095     3928     3929 1
    4096     3928     3961 1
    4097     3928     3962 1
    4098     3928     3963 1
    4099     3929     3930 1
    4100     3929     3964 1
    4101     3929     3965 1
    4102     3930     3931 1
    4103     3930     3966 1
    4104     3930     3967 1
    4105     3931     3932 1
    4106     3931     3968 1
    4107     3931     3969 1
    4108     3932     3933 1
    4109     3932     3970 1
    4110     3932     3971 1
    4111     3933     3934 1
    4112     3933     3972 1
    4113     3933     3973 1
    4114     3934     3935 1
    4115     3934     3974 1
    4116     3934     3975 1
    4117     3935     3936 1
    4118     3935     3976 1
    4119     3935     3977 1
    4120     3936     3937 1
    4121     3936     3943 1
    4122     3936     3978 1
    4123     3937     3938 1
    4124     3937     3979 1
    4125     3937     3980 1
    4126     3938     3939 1
    4127     3938     3981 1
    4128     3938     3982 1
    4129     3939     3940 1
    4130     3939     3983 1
    4131     3939     3984 1
    4132     3940     3941 1
    4133     3940     3985 1
    4134     3940     3986 1
    4135     3941     3942 1
    4136     3941     3987 1
    4137     3941     3988 1
    4138     3942     3989 1
    4139     3942     3990 1
    4140     3942     3991 1
    4141     3943     3944 1
    4142     3943     3992 1
    4143     3943     3993 1
    4144     3944     3945 1
    4145     3945     3946 1
    4146     3945     3994 1
    4147     3945     3995 1
    4148     3946     3947 1
    4149     3946     3953 1
    4150     3946     3996 1
    4151     3947     3948 1
    4152     3947     3997 1
    4153     3947     3998 1
    4154     3948     3949 1
    4155     3948     3999 1
    4156     3948     4000 1
    4157     3949     3950 1
    4158     3949     4001 1
    4159     3949     4002 1
    4160     3950     3951 1
    4161     3950     4003 1
    4162     3950     4004 1
    4163     3951     3952 1
    4164     3951     4005 1
    4165     3951     4006 1
    4166     3952     4007 1
    4167     3952     4008 1
    4168     3952     4009 1
    4169     3953     3954 1
    4170     3953     4010 1
    4171     3953     4011 1
    4172     3954     3955 1
    4173     3954     4012 1
    4174     3954     4013 1
    4175     3955     3956 1
    4176     3955     4014 1
    4177     3955     4015 1
    4178     3956     3957 1
    4179     3956     4016 1
    4180     3956     4017 1
    4181     3957     3958 1
    4182     3957     4018 1
    4183     3957     4019 1
    4184     3958     3959 1
    4185     3958     4020 1
    4186     3958     4021 1
    4187     3959     3960 1
    4188     3959     4022 1
    4189     3959     4023 1
    4190     3960     4024 1
    4191     3960     4025 1
    4192     3960     4026 1
    4193     4027     4028 1
    4194     4027     4034 1
    4195     4027     4066 1
    4196     4028     4029 1
    4197     4028     4032 1
    4198     4029     4030 1
    4199     4029     4033 1
    4200     4030     4031 1
    4201     4031     4032 1
    4202     4031     4042 1
    4203     4032     4038 1
    4204     4033     4034 1
    4205     4033     4037 1
    4206     4034     4035 1
    4207     4035     4036 1
    4208     4035     4039 1
    4209     4036     4037 1
    4210     4040     4041 1
    4211     4040     4048 1
    4212     4041     4042 1
    4213     4041     4049 1
    4214     4042     4043 1
    4215     4043     4044 1
    4216     4043     4047 1
    4217     4044     4045 1
    4218     4045     4046 1
    4219     4046     4047 1
    4220     4047     4048 1
    4221     4048     4158 1
    4222     4050     4051 1
    4223     4050     4083 1
    4224     4050     4084 1
    4225     4050     4085 1
    4226     4051     4052 1
    4227     4051     4086 1
    4228     4051     4087 1
    4229     4052     4053 1
    4230     4052     4088 1
    4231     4052     4089 1
    4232     4053     4054 1
    4233     4053     4090 1
    4234     4053     4091 1
    4235     4054     4055 1
    4236     4054     4092 1
    4237     4054     4093 1
    4238     4055     4056 1
    4239     4055     4094 1
    4240     4055     4095 1
    4241     4056     4057 1
    4242     4056     4096 1
    4243     4056     4097 1
    4244     4057     4058 1
    4245     4057     4098 1
    4246     4057     4099 1
    4247     4058     4059 1
    4248     4058     4065 1
    4249     4058     4100 1
    4250     4059     4060 1
    4251     4059     4101 1
    4252     4059     4102 1
    4253     4060     4061 1
    4254     4060     4103 1
    4255     4060     4104 1
    4256     4061     4062 1
    4257     4061     4105 1
    4258     4061     4106 1
    4259     4062     4063 1
    4260     4062     4107 1
    4261     4062     4108 1
    4262     4063     4064 1
    4263     4063     4109 1
    4264     4063     4110 1
    4265     4064     4111 1
    4266     4064     4112 1
    4267     4064     4113 1
    4268     4065     4066 1
    4269     4065     4114 1
    4270     4065     4115 1
    4271     4066     4067 1
    4272     4067     4068 1
    4273     4067     4116 1
    4274     4067     4117 1
    4275     4068     4069 1
    4276     4068     4075 1
    4277     4068     4118 1
    4278     4069     4070 1
    4279     4069     4119 1
    4280     4069     4120 1
    4281     4070     4071 1
    4282     4070     4121 1
    4283     4070     4122 1
    4284     4071     4072 1
    4285     4071     4123 1
    4286     4071     4124 1
    4287     4072     4073 1
    4288     4072     4125 1
    4289     4072     4126 1
    4290     4073     4074 1
    4291     4073     4127 1
    4292     4073     4128 1
    4293     4074     4129 1
    4294     4074     4130 1
    4295     4074     4131 1
    4296     4075     4076 1
    4297     4075     4132 1
    4298     4075     4133 1
    4299     4076     4077 1
    4300     4076     4134 1
    4301     4076     4135 1
    4302     4077     4078 1
    4303     4077     4136 1
    4304     4077     4137 1
    4305     4078     4079 1
    4306     4078     4138 1
    4307     4078     4139 1
    4308     4079     4080 1
    4309     4079     4140 1
    4310     4079     4141 1
    4311     4080     4081 1
    4312     4080     4142 1
    4313     4080     4143 1
    4314     4081     4082 1
    4315     4081     4144 1
    4316     4081     4145 1
    4317     4082     4146 1
    4318     4082     4147 1
    4319     4082     4148 1
    4320     4149     4150 1
    4321     4149     4156 1
    4322     4149     4188 1
    4323     4150     4151 1
    4324     4150     4154 1
    4325     4151     4152 1
    4326     4151     4155 1
    4327     4152     4153 1
    4328     4153     4154 1
    4329     4153     4164 1
    4330     4154     4160 1
    4331     4155     4156 1
    4332     4155     4159 1
    4333     4156     4157 1
    4334     4157     4158 1
    4335     4157     4161 1
    4336     4158     4159 1
    4337     4162     4163 1
    4338     4162     4170 1
    4339     4163     4164 1
    4340     4163     4171 1
    4341     4164     4165 1
    4342     4165     4166 1
    4343     4165     4169 1
    4344     4166     4167 1
    4345     4167     4168 1
    4346     4168     4169 1
    4347     4169     4170 1
    4348     4170     4280 1
    4349     4172     4173 1
    4350     4172     4205 1
    4351     4172     4206 1
    4352     4172     4207 1
    4353     4173     4174 1
    4354     4173     4208 1
    4355     4173     4209 1
    4356     4174     4175 1
    4357     4174     4210 1
    4358     4174     4211 1
    4359     4175     4176 1
    4360     4175     4212 1
    4361     4175     4213 1
    4362     4176     4177 1
    4363     4176     4214 1
    4364     4176     4215 1
    4365     4177     4178 1
    4366     4177     4216 1
    4367     4177     4217 1
    4368     4178     4179 1
    4369     4178     4218 1
    4370     4178     4219 1
    4371     4179     4180 1
    4372     4179     4220 1
    4373     4179     4221 1
    4374     4180     4181 1
    4375     4180     4187 1
    4376     4180     4222 1
    4377     4181     4182 1
    4378     4181     4223 1
    4379     4181     4224 1
    4380     4182     4183 1
    4381     4182     4225 1
    4382     4182     4226 1
    4383     4183     4184 1
    4384     4183     4227 1
    4385     4183     4228 1
    4386     4184     4185 1
    4387     4184     4229 1
    4388     4184     4230 1
    4389     4185     4186 1
    4390     4185     4231 1
    4391     4185     4232 1
    4392     4186     4233 1
    4393     4186     4234 1
    4394     4186     4235 1
    4395     4187     4188 1
    4396     4187     4236 1
    4397     4187     4237 1
    4398     4188     4189 1
    4399     4189     4190 1
    4400     4189     4238 1
    4401     4189     4239 1
    4402     4190     4191 1
    4403     4190     4197 1
    4404     4190     4240 1
    4405     4191     4192 1
    4406     4191     4241 1
    4407     4191     4242 1
    4408     4192     4193 1
    4409     4192     4243 1
    4410     4192     4244 1
    4411     4193     4194 1
    4412     4193     4245 1
    4413     4193     4246 1
    4414     4194     4195 1
    4415     4194     4247 1
    4416     4194     4248 1
    4417     4195     4196 1
    4418     4195     4249 1
    4419     4195     4250 1
    4420     4196     4251 1
    4421     4196     4252 1
    4422     4196     4253 1
    4423     4197     4198 1
    4424     4197     4254 1
    4425     4197     4255 1
    4426     4198     4199 1
    4427     4198     4256 1
    4428     4198     4257 1
    4429     4199     4200 1
    4430     4199     4258 1
    4431     4199     4259 1
    4432     4200     4201 1
    4433     4200     4260 1
    4434     4200     4261 1
    4435     4201     4202 1
    4436     4201     4262 1
    4437     4201     4263 1
    4438     4202     4203 1
    4439     4202     4264 1
    4440     4202     4265 1
    4441     4203     4204 1
    4442     4203     4266 1
    4443     4203     4267 1
    4444     4204     4268 1
    4445     4204     4269 1
    4446     4204     4270 1
    4447     4271     4272 1
    4448     4271     4278 1
    4449     4271     4310 1
    4450     4272     4273 1
    4451     4272     4276 1
    4452     4273     4274 1
    4453     4273     4277 1
    4454     4274     4275 1
    4455     4275     4276 1
    4456     4275     4286 1
    4457     4276     4282 1
    4458     4277     4278 1
    4459     4277     4281 1
    4460     4278     4279 1
    4461     4279     4280 1
    4462     4279     4283 1
    4463     4280     4281 1
    4464     4284     4285 1
    4465     4284     4292 1
    4466     4285     4286 1
    4467     4285     4293 1
    4468     4286     4287 1
    4469     4287     4288 1
    4470     4287     4291 1
    4471     4288     4289 1
    4472     4289     4290 1
    4473     4290     4291 1
    4474     4291     4292 1
    4475     4292     4402 1
    4476     4294     4295 1
    4477     4294     4327 1
    4478     4294     4328 1
    4479     4294     4329 1
    4480     4295     4296 1
    4481     4295     4330 1
    4482     4295     4331 1
    4483     4296     4297 1
    4484     4296     4332 1
    4485     4296     4333 1
    4486     4297     4298 1
    4487     4297     4334 1
    4488     4297     4335 1
    4489     4298     4299 1
    4490     4298     4336 1
    4491     4298     4337 1
    4492     4299     4300 1
    4493     4299     4338 1
    4494     4299     4339 1
    4495     4300     4301 1
    4496     4300     4340 1
    4497     4300     4341 1
    4498     4301     4302 1
    4499     4301     4342 1
    4500     4301     4343 1
    4501     4302     4303 1
    4502     4302     4309 1
    4503     4302     4344 1
    4504     4303     4304 1
    4505     4303     4345 1
    4506     4303     4346 1
    4507     4304     4305 1
    4508     4304     4347 1
    4509     4304     4348 1
    4510     4305     4306 1
    4511     4305     4349 1
    4512     4305     4350 1
    4513     4306     4307 1
    4514     4306     4351 1
    4515     4306     4352 1
    4516     4307     4308 1
    4517     4307     4353 1
    4518     4307     4354 1
    4519     4308     4355 1
    4520     4308     4356 1
    4521     4308     4357 1
    4522     4309     4310 1
    4523     4309     4358 1
    4524     4309     4359 1
    4525     4310     4311 1
    4526     4311     4312 1
    4527     4311     4360 1
    4528     4311     4361 1
    4529     4312     4313 1
    4530     4312     4319 1
    4531     4312     4362 1
    4532     4313     4314 1
    4533     4313     4363 1
    4534     4313     4364 1
    4535     4314     4315 1
    4536     4314     4365 1
    4537     4314     4366 1
    4538     4315     4316 1
    4539     4315     4367 1
    4540     4315     4368 1
    4541     4316     4317 1
    4542     4316     4369 1
    4543     4316     4370 1
    4544     4317     4318 1
    4545     4317     4371 1
    4546     4317     4372 1
    4547     4318     4373 1
    4548     4318     4374 1
    4549     4318     4375 1
    4550     4319     4320 1
    4551     4319     4376 1
    4552     4319     4377 1
    4553     4320     4321 1
    4554     4320     4378 1
    4555     4320     4379 1
    4556     4321     4322 1
    4557     4321     4380 1
    4558     4321     4381 1
    4559     4322     4323 1
    4560     4322     4382 1
    4561     4322     4383 1
    4562     4323     4324 1
    4563     4323     4384 1
    4564     4323     4385 1
    4565     4324     4325 1
    4566     4324     4386 1
    4567     4324     4387 1
    4568     4325     4326 1
    4569     4325     4388 1
    4570     4325     4389 1
    4571     4326     4390 1
    4572     4326     4391 1
    4573     4326     4392 1
    4574     4393     4394 1
    4575     4393     4400 1
    4576     4393     4432 1
    4577     4394     4395 1
    4578     4394     4398 1
    4579     4395     4396 1
    4580     4395     4399 1
    4581     4396     4397 1
    4582     4397     4398 1
    4583     4397     4408 1
    4584     4398     4404 1
    4585     4399     4400 1
    4586     4399     4403 1
    4587     4400     4401 1
    4588     4401     4402 1
    4589     4401     4405 1
    4590     4402     4403 1
    4591     4406     4407 1
    4592     4406     4414 1
    4593     4407     4408 1
    4594     4407     4415 1
    4595     4408     4409 1
    4596     4409     4410 1
    4597     4409     4413 1
    4598     4410     4411 1
    4599     4411     4412 1
    4600     4412     4413 1
    4601     4413     4414 1
    4602     4414     4524 1
    4603     4416     4417 1
    4604     4416     4449 1
    4605     4416     4450 1
    4606     4416     4451 1
    4607     4417     4418 1
    4608     4417     4452 1
    4609     4417     4453 1
    4610     4418     4419 1
    4611     4418     4454 1
    4612     4418     4455 1
    4613     4419     4420 1
    4614     4419     4456 1
    4615     4419     4457 1
    4616     4420     4421 1
    4617     4420     4458 1
    4618     4420     4459 1
    4619     4421     4422 1
    4620     4421     4460 1
    4621     4421     4461 1
    4622     4422     4423 1
    4623     4422     4462 1
    4624     4422     4463 1
    4625     4423     4424 1
    4626     4423     4464 1
    4627     4423     4465 1
    4628     4424     4425 1
    4629     4424     4431 1
    4630     4424     4466 1
    4631     4425     4426 1
    4632     4425     4467 1
    4633     4425     4468 1
    4634     4426     4427 1
    4635     4426     4469 1
    4636     4426     4470 1
    4637     4427     4428 1
    4638     4427     4471 1
    4639     4427     4472 1
    4640     4428     4429 1
    4641     4428     4473 1
    4642     4428     4474 1
    4643     4429     4430 1
    4644     4429     4475 1
    4645     4429     4476 1
    4646     4430     4477 1
    4647     4430     4478 1
    4648     4430     4479 1
    4649     4431     4432 1
    4650     4431     4480 1
    4651     4431     4481 1
    4652     4432     4433 1
    4653     4433     4434 1
    4654     4433     4482 1
    4655     4433     4483 1
    4656     4434     4435 1
    4657     4434     4441 1
    4658     4434     4484 1
    4659     4435     4436 1
    4660     4435     4485 1
    4661     4435     4486 1
    4662     4436     4437 1
    4663     4436     4487 1
    4664     4436     4488 1
    4665     4437     4438 1
    4666     4437     4489 1
    4667     4437     4490 1
    4668     4438     4439 1
    4669     4438     4491 1
    4670     4438     4492 1
    4671     4439     4440 1
    4672     4439     4493 1
    4673     4439     4494 1
    4674     4440     4495 1
    4675     4440     4496 1
    4676     4440     4497 1
    4677     4441     4442 1
    4678     4441     4498 1
    4679     4441     4499 1
    4680     4442     4443 1
    4681     4442     4500 1
    4682     4442     4501 1
    4683     4443     4444 1
    4684     4443     4502 1
    4685     4443     4503 1
    4686     4444     4445 1
    4687     4444     4504 1
    4688     4444     4505 1
    4689     4445     4446 1
    4690     4445     4506 1
    4691     4445     4507 1
    4692     4446     4447 1
    4693     4446     4508 1
    4694     4446     4509 1
    4695     4447     4448 1
    4696     4447     4510 1
    4697     4447     4511 1
    4698     4448     4512 1
    4699     4448     4513 1
    4700     4448     4514 1
    4701     4515     4516 1
    4702     4515     4522 1
    4703     4515     4554 1
    4704     4516     4517 1
    4705     4516     4520 1
    4706     4517     4518 1
    4707     4517     4521 1
    4708     4518     4519 1
    4709     4519     4520 1
    4710     4519     4530 1
    4711     4520     4526 1
    4712     4521     4522 1
    4713     4521     4525 1
    4714     4522     4523 1
    4715     4523     4524 1
    4716     4523     4527 1
    4717     4524     4525 1
    4718     4528     4529 1
    4719     4528     4536 1
    4720     4529     4530 1
    4721     4529     4537 1
    4722     4530     4531 1
    4723     4531     4532 1
    4724     4531     4535 1
    4725     4532     4533 1
    4726     4533     4534 1
    4727     4534     4535 1
    4728     4535     4536 1
    4729     4536     4646 1
    4730     4538     4539 1
    4731     4538     4571 1
    4732     4538     4572 1
    4733     4538     4573 1
    4734     4539     4540 1
    4735     4539     4574 1
    4736     4539     4575 1
    4737     4540     4541 1
    4738     4540     4576 1
    4739     4540     4577 1
    4740     4541     4542 1
    4741     4541     4578 1
    4742     4541     4579 1
    4743     4542     4543 1
    4744     4542     4580 1
    4745     4542     4581 1
    4746     4543     4544 1
    4747     4543     4582 1
    4748     4543     4583 1
    4749     4544     4545 1
    4750     4544     4584 1
    4751     4544     4585 1
    4752     4545     4546 1
    4753     4545     4586 1
    4754     4545     4587 1
    4755     4546     4547 1
    4756     4546     4553 1
    4757     4546     4588 1
    4758     4547     4548 1
    4759     4547     4589 1
    4760     4547     4590 1
    4761     4548     4549 1
    4762     4548     4591 1
    4763     4548     4592 1
    4764     4549     4550 1
    4765     4549     4593 1
    4766     4549     4594 1
    4767     4550     4551 1
    4768     4550     4595 1
    4769     4550     4596 1
    4770     4551     4552 1
    4771     4551     4597 1
    4772     4551     4598 1
    4773     4552     4599 1
    4774     4552     4600 1
    4775     4552     4601 1
    4776     4553     4554 1
    4777     4553     4602 1
    4778     4553     4603 1
    4779     4554     4555 1
    4780     4555     4556 1
    4781     4555     4604 1
    4782     4555     4605 1
    4783     4556     4557 1
    4784     4556     4563 1
    4785     4556     4606 1
    4786     4557     4558 1
    4787     4557     4607 1
    4788     4557     4608 1
    4789     4558     4559 1
    4790     4558     4609 1
    4791     4558     4610 1
    4792     4559     4560 1
    4793     4559     4611 1
    4794     4559     4612 1
    4795     4560     4561 1
    4796     4560     4613 1
    4797     4560     4614 1
    4798     4561     4562 1
    4799     4561     4615 1
    4800     4561     4616 1
    4801     4562     4617 1
    4802     4562     4618 1
    4803     4562     4619 1
    4804     4563     4564 1
    4805     4563     4620 1
    4806     4563     4621 1
    4807     4564     4565 1
    4808     4564     4622 1
    4809     4564     4623 1
    4810     4565     4566 1
    4811     4565     4624 1
    4812     4565     4625 1
    4813     4566     4567 1
    4814     4566     4626 1
    4815     4566     4627 1
    4816     4567     4568 1
    4817     4567     4628 1
    4818     4567     4629 1
    4819     4568     4569 1
    4820     4568     4630 1
    4821     4568     4631 1
    4822     4569     4570 1
    4823     4569     4632 1
    4824     4569     4633 1
    4825     4570     4634 1
    4826     4570     4635 1
    4827     4570     4636 1
    4828     4637     4638 1
    4829     4637     4644 1
    4830     4637     4676 1
    4831     4638     4639 1
    4832     4638     4642 1
    4833     4639     4640 1
    4834     4639     4643 1
    4835     4640     4641 1
    4836     4641     4642 1
    4837     4641     4652 1
    4838     4642     4648 1
    4839     4643     4644 1
    4840     4643     4647 1
    4841     4644     4645 1
    4842     4645     4646 1
    4843     4645     4649 1
    4844     4646     4647 1
    4845     4650     4651 1
    4846     4650     4658 1
    4847     4651     4652 1
    4848     4651     4659 1
    4849     4652     4653 1
    4850     4653     4654 1
    4851     4653     4657 1
    4852     4654     4655 1
    4853     4655     4656 1
    4854     4656     4657 1
    4855     4657     4658 1
    4856     4658     4768 1
    4857     4660     4661 1
    4858     4660     4693 1
    4859     4660     4694 1
    4860     4660     4695 1
    4861     4661     4662 1
    4862     4661     4696 1
    4863     4661     4697 1
    4864     4662     4663 1
    4865     4662     4698 1
    4866     4662     4699 1
    4867     4663     4664 1
    4868     4663     4700 1
    4869     4663     4701 1
    4870     4664     4665 1
    4871     4664     4702 1
    4872     4664     4703 1
    4873     4665     4666 1
    4874     4665     4704 1
    4875     4665     4705 1
    4876     4666     4667 1
    4877     4666     4706 1
    4878     4666     4707 1
    4879     4667     4668 1
    4880     4667     4708 1
    4881     4667     4709 1
    4882     4668     4669 1
    4883     4668     4675 1
    4884     4668     4710 1
    4885     4669     4670 1
    4886     4669     4711 1
    4887     4669     4712 1
    4888     4670     4671 1
    4889     4670     4713 1
    4890     4670     4714 1
    4891     4671     4672 1
    4892     4671     4715 1
    4893     4671     4716 1
    4894     4672     4673 1
    4895     4672     4717 1
    4896     4672     4718 1
    4897     4673     4674 1
    4898     4673     4719 1
    4899     4673     4720 1
    4900     4674     4721 1
    4901     4674     4722 1
    4902     4674     4723 1
    4903     4675     4676 1
    4904     4675     4724 1
    4905     4675     4725 1
    4906     4676     4677 1
    4907     4677     4678 1
    4908     4677     4726 1
    4909     4677     4727 1
    4910     4678     4679 1
    4911     4678     4685 1
    4912     4678     4728 1
    4913     4679     4680 1
    4914     4679     4729 1
    4915     4679     4730 1
    4916     4680     4681 1
    4917     4680     4731 1
    4918     4680     4732 1
    4919     4681     4682 1
    4920     4681     4733 1
    4921     4681     4734 1
    4922     4682     4683 1
    4923     4682     4735 1
    4924     4682     4736 1
    4925     4683     4684 1
    4926     4683     4737 1
    4927     4683     4738 1
    4928     4684     4739 1
    4929     4684     4740 1
    4930     4684     4741 1
    4931     4685     4686 1
    4932     4685     4742 1
    4933     4685     4743 1
    4934     4686     4687 1
    4935     4686     4744 1
    4936     4686     4745 1
    4937     4687     4688 1
    4938     4687     4746 1
    4939     4687     4747 1
    4940     4688     4689 1
    4941     4688     4748 1
    4942     4688     4749 1
    4943     4689     4690 1
    4944     4689     4750 1
    4945     4689     4751 1
    4946     4690     4691 1
    4947     4690     4752 1
    4948     4690     4753 1
    4949     4691     4692 1
    4950     4691     4754 1
    4951     4691     4755 1
    4952     4692     4756 1
    4953     4692     4757 1
    4954     4692     4758 1
    4955     4759     4760 1
    4956     4759     4766 1
    4957     4759     4798 1
    4958     4760     4761 1
    4959     4760     4764 1
    4960     4761     4762 1
    4961     4761     4765 1
    4962     4762     4763 1
    4963     4763     4764 1
    4964     4763     4774 1
    4965     4764     4770 1
    4966     4765     4766 1
    4967     4765     4769 1
    4968     4766     4767 1
    4969     4767     4768 1
    4970     4767     4771 1
    4971     4768     4769 1
    4972     4772     4773 1
    4973     4772     4780 1
    4974     4773     4774 1
    4975     4773     4781 1
    4976     4774     4775 1
    4977     4775     4776 1
    4978     4775     4779 1
    4979     4776     4777 1
    4980     4777     4778 1
    4981     4778     4779 1
    4982     4779     4780 1
    4983     4780     4890 1
    4984     4782     4783 1
    4985     4782     4815 1
    4986     4782     4816 1
    4987     4782     4817 1
    4988     4783     4784 1
    4989     4783     4818 1
    4990     4783     4819 1
    4991     4784     4785 1
    4992     4784     4820 1
    4993     4784     4821 1
    4994     4785     4786 1
    4995     4785     4822 1
    4996     4785     4823 1
    4997     4786     4787 1
    4998     4786     4824 1
    4999     4786     4825 1
    5000     4787     4788 1
    5001     4787     4826 1
    5002     4787     4827 1
    5003     4788     4789 1
    5004     4788     4828 1
    5005     4788     4829 1
    5006     4789     4790 1
    5007     4789     4830 1
    5008     4789     4831 1
    5009     4790     4791 1
    5010     4790     4797 1
    5011     4790     4832 1
    5012     4791     4792 1
    5013     4791     4833 1
    5014     4791     4834 1
    5015     4792     4793 1
    5016     4792     4835 1
    5017     4792     4836 1
    5018     4793     4794 1
    5019     4793     4837 1
    5020     4793     4838 1
    5021     4794     4795 1
    5022     4794     4839 1
    5023     4794     4840 1
    5024     4795     4796 1
    5025     4795     4841 1
    5026     4795     4842 1
    5027     4796     4843 1
    5028     4796     4844 1
    5029     4796     4845 1
    5030     4797     4798 1
    5031     4797     4846 1
    5032     4797     4847 1
    5033     4798     4799 1
    5034     4799     4800 1
    5035     4799     4848 1
    5036     4799     4849 1
    5037     4800     4801 1
    5038     4800     4807 1
    5039     4800     4850 1
    5040     4801     4802 1
    5041     4801     4851 1
    5042     4801     4852 1
    5043     4802     4803 1
    5044     4802     4853 1
    5045     4802     4854 1
    5046     4803     4804 1
    5047     4803     4855 1
    5048     4803     4856 1
    5049     4804     4805 1
    5050     4804     4857 1
    5051     4804     4858 1
    5052     4805     4806 1
    5053     4805     4859 1
    5054     4805     4860 1
    5055     4806     4861 1
    5056     4806     4862 1
    5057     4806     4863 1
    5058     4807     4808 1
    5059     4807     4864 1
    5060     4807     4865 1
    5061     4808     4809 1
    5062     4808     4866 1
    5063     4808     4867 1
    5064     4809     4810 1
    5065     4809     4868 1
    5066     4809     4869 1
    5067     4810     4811 1
    5068     4810     4870 1
    5069     4810     4871 1
    5070     4811     4812 1
    5071     4811     4872 1
    5072     4811     4873 1
    5073     4812     4813 1
    5074     4812     4874 1
    5075     4812     4875 1
    5076     4813     4814 1
    5077     4813     4876 1
    5078     4813     4877 1
    5079     4814     4878 1
    5080     4814     4879 1
    5081     4814     4880 1
    5082     4881     4882 1
    5083     4881     4888 1
    5084     4881     4920 1
    5085     4882     4883 1
    5086     4882     4886 1
    5087     4883     4884 1
    5088     4883     4887 1
    5089     4884     4885 1
    5090     4885     4886 1
    5091     4885     4896 1
    5092     4886     4892 1
    5093     4887     4888 1
    5094     4887     4891 1
    5095     4888     4889 1
    5096     4889     4890 1
    5097     4889     4893 1
    5098     4890     4891 1
    5099     4894     4895 1
    5100     4894     4902 1
    5101     4895     4896 1
    5102     4895     4903 1
    5103     4896     4897 1
    5104     4897     4898 1
    5105     4897     4901 1
    5106     4898     4899 1
    5107     4899     4900 1
    5108     4900     4901 1
    5109     4901     4902 1
    5110     4902     5012 1
    5111     4904     4905 1
    5112     4904     4937 1
    5113     4904     4938 1
    5114     4904     4939 1
    5115     4905     4906 1
    5116     4905     4940 1
    5117     4905     4941 1
    5118     4906     4907 1
    5119     4906     4942 1
    5120     4906     4943 1
    5121     4907     4908 1
    5122     4907     4944 1
    5123     4907     4945 1
    5124     4908     4909 1
    5125     4908     4946 1
    5126     4908     4947 1
    5127     4909     4910 1
    5128     4909     4948 1
    5129     4909     4949 1
    5130     4910     4911 1
    5131     4910     4950 1
    5132     4910     4951 1
    5133     4911     4912 1
    5134     4911     4952 1
    5135     4911     4953 1
    5136     4912     4913 1
    5137     4912     4919 1
    5138     4912     4954 1
    5139     4913     4914 1
    5140     4913     4955 1
    5141     4913     4956 1
    5142     4914     4915 1
    5143     4914     4957 1
    5144     4914     4958 1
    5145     4915     4916 1
    5146     4915     4959 1
    5147     4915     4960 1
    5148     4916     4917 1
    5149     4916     4961 1
    5150     4916     4962 1
    5151     4917     4918 1
    5152     4917     4963 1
    5153     4917     4964 1
    5154     4918     4965 1
    5155     4918     4966 1
    5156     4918     4967 1
    5157     4919     4920 1
    5158     4919     4968 1
    5159     4919     4969 1
    5160     4920     4921 1
    5161     4921     4922 1
    5162     4921     4970 1
    5163     4921     4971 1
    5164     4922     4923 1
    5165     4922     4929 1
    5166     4922     4972 1
    5167     4923     4924 1
    5168     4923     4973 1
    5169     4923     4974 1
    5170     4924     4925 1
    5171     4924     4975 1
    5172     4924     4976 1
    5173     4925     4926 1
    5174     4925     4977 1
    5175     4925     4978 1
    5176     4926     4927 1
    5177     4926     4979 1
    5178     4926     4980 1
    5179     4927     4928 1
    5180     4927     4981 1
    5181     4927     4982 1
    5182     4928     4983 1
    5183     4928     4984 1
    5184     4928     4985 1
    5185     4929     4930 1
    5186     4929     4986 1
    5187     4929     4987 1
    5188     4930     4931 1
    5189     4930     4988 1
    5190     4930     4989 1
    5191     4931     4932 1
    5192     4931     4990 1
    5193     4931     4991 1
    5194     4932     4933 1
    5195     4932     4992 1
    5196     4932     4993 1
    5197     4933     4934 1
    5198     4933     4994 1
    5199     4933     4995 1
    5200     4934     4935 1
    5201     4934     4996 1
    5202     4934     4997 1
    5203     4935     4936 1
    5204     4935     4998 1
    5205     4935     4999 1
    5206     4936     5000 1
    5207     4936     5001 1
    5208     4936     5002 1
    5209     5003     5004 1
    5210     5003     5010 1
    5211     5003     5042 1
    5212     5004     5005 1
    5213     5004     5008 1
    5214     5005     5006 1
    5215     5005     5009 1
    5216     5006     5007 1
    5217     5007     5008 1
    5218     5007     5018 1
    5219     5008     5014 1
    5220     5009     5010 1
    5221     5009     5013 1
    5222     5010     5011 1
    5223     5011     5012 1
    5224     5011     5015 1
    5225     5012     5013 1
    5226     5016     5017 1
    5227     5016     5024 1
    5228     5017     5018 1
    5229     5017     5025 1
    5230     5018     5019 1
    5231     5019     5020 1
    5232     5019     5023 1
    5233     5020     5021 1
    5234     5021     5022 1
    5235     5022     5023 1
    5236     5023     5024 1
    5237     5024     5134 1
    5238     5026     5027 1
    5239     5026     5059 1
    5240     5026     5060 1
    5241     5026     5061 1
    5242     5027     5028 1
    5243     5027     5062 1
    5244     5027     5063 1
    5245     5028     5029 1
    5246     5028     5064 1
    5247     5028     5065 1
    5248     5029     5030 1
    5249     5029     5066 1
    5250     5029     5067 1
    5251     5030     5031 1
    5252     5030     5068 1
    5253     5030     5069 1
    5254     5031     5032 1
    5255     5031     5070 1
    5256     5031     5071 1
    5257     5032     5033 1
    5258     5032     5072 1
    5259     5032     5073 1
    5260     5033     5034 1
    5261     5033     5074 1
    5262     5033     5075 1
    5263     5034     5035 1
    5264     5034     5041 1
    5265     5034     5076 1
    5266     5035     5036 1
    5267     5035     5077 1
    5268     5035     5078 1
    5269     5036     5037 1
    5270     5036     5079 1
    5271     5036     5080 1
    5272     5037     5038 1
    5273     5037     5081 1
    5274     5037     5082 1
    5275     5038     5039 1
    5276     5038     5083 1
    5277     5038     5084 1
    5278     5039     5040 1
    5279     5039     5085 1
    5280     5039     5086 1
    5281     5040     5087 1
    5282     5040     5088 1
    5283     5040     5089 1
    5284     5041     5042 1
    5285     5041     5090 1
    5286     5041     5091 1
    5287     5042     5043 1
    5288     5043     5044 1
    5289     5043     5092 1
    5290     5043     5093 1
    5291     5044     5045 1
    5292     5044     5051 1
    5293     5044     5094 1
    5294     5045     5046 1
    5295     5045     5095 1
    5296     5045     5096 1
    5297     5046     5047 1
    5298     5046     5097 1
    5299     5046     5098 1
    5300     5047     5048 1
    5301     5047     5099 1
    5302     5047     5100 1
    5303     5048     5049 1
    5304     5048     5101 1
    5305     5048     5102 1
    5306     5049     5050 1
    5307     5049     5103 1
    5308     5049     5104 1
    5309     5050     5105 1
    5310     5050     5106 1
    5311     5050     5107 1
    5312     5051     5052 1
    5313     5051     5108 1
    5314     5051     5109 1
    5315     5052     5053 1
    5316     5052     5110 1
    5317     5052     5111 1
    5318     5053     5054 1
    5319     5053     5112 1
    5320     5053     5113 1
    5321     5054     5055 1
    5322     5054     5114 1
    5323     5054     5115 1
    5324     5055     5056 1
    5325     5055     5116 1
    5326     5055     5117 1
    5327     5056     5057 1
    5328     5056     5118 1
    5329     5056     5119 1
    5330     5057     5058 1
    5331     5057     5120 1
    5332     5057     5121 1
    5333     5058     5122 1
    5334     5058     5123 1
    5335     5058     5124 1
    5336     5125     5126 1
    5337     5125     5132 1
    5338     5125     5164 1
    5339     5126     5127 1
    5340     5126     5130 1
    5341     5127     5128 1
    5342     5127     5131 1
    5343     5128     5129 1
    5344     5129     5130 1
    5345     5129     5140 1
    5346     5130     5136 1
    5347     5131     5132 1
    5348     5131     5135 1
    5349     5132     5133 1
    5350     5133     5134 1
    5351     5133     5137 1
    5352     5134     5135 1
    5353     5138     5139 1
    5354     5138     5146 1
    5355     5139     5140 1
    5356     5139     5147 1
    5357     5140     5141 1
    5358     5141     5142 1
    5359     5141     5145 1
    5360     5142     5143 1
    5361     5143     5144 1
    5362     5144     5145 1
    5363     5145     5146 1
    5364     5146     5256 1
    5365     5148     5149 1
    5366     5148     5181 1
    5367     5148     5182 1
    5368     5148     5183 1
    5369     5149     5150 1
    5370     5149     5184 1
    5371     5149     5185 1
    5372     5150     5151 1
    5373     5150     5186 1
    5374     5150     5187 1
    5375     5151     5152 1
    5376     5151     5188 1
    5377     5151     5189 1
    5378     5152     5153 1
    5379     5152     5190 1
    5380     5152     5191 1
    5381     5153     5154 1
    5382     5153     5192 1
    5383     5153     5193 1
    5384     5154     5155 1
    5385     5154     5194 1
    5386     5154     5195 1
    5387     5155     5156 1
    5388     5155     5196 1
    5389     5155     5197 1
    5390     5156     5157 1
    5391     5156     5163 1
    5392     5156     5198 1
    5393     5157     5158 1
    5394     5157     5199 1
    5395     5157     5200 1
    5396     5158     5159 1
    5397     5158     5201 1
    5398     5158     5202 1
    5399     5159     5160 1
    5400     5159     5203 1
    5401     5159     5204 1
    5402     5160     5161 1
    5403     5160     5205 1
    5404     5160     5206 1
    5405     5161     5162 1
    5406     5161     5207 1
    5407     5161     5208 1
    5408     5162     5209 1
    5409     5162     5210 1
    5410     5162     5211 1
    5411     5163     5164 1
    5412     5163     5212 1
    5413     5163     5213 1
    5414     5164     5165 1
    5415     5165     5166 1
    5416     5165     5214 1
    5417     5165     5215 1
    5418     5166     5167 1
    5419     5166     5173 1
    5420     5166     5216 1
    5421     5167     5168 1
    5422     5167     5217 1
    5423     5167     5218 1
    5424     5168     5169 1
    5425     5168     5219 1
    5426     5168     5220 1
    5427     5169     5170 1
    5428     5169     5221 1
    5429     5169     5222 1
    5430     5170     5171 1
    5431     5170     5223 1
    5432     5170     5224 1
    5433     5171     5172 1
    5434     5171     5225 1
    5435     5171     5226 1
    5436     5172     5227 1
    5437     5172     5228 1
    5438     5172     5229 1
    5439     5173     5174 1
    5440     5173     5230 1
    5441     5173     5231 1
    5442     5174     5175 1
    5443     5174     5232 1
    5444     5174     5233 1
    5445     5175     5176 1
    5446     5175     5234 1
    5447     5175     5235 1
    5448     5176     5177 1
    5449     5176     5236 1
    5450     5176     5237 1
    5451     5177     5178 1
    5452     5177     5238 1
    5453     5177     5239 1
    5454     5178     5179 1
    5455     5178     5240 1
    5456     5178     5241 1
    5457     5179     5180 1
    5458     5179     5242 1
    5459     5179     5243 1
    5460     5180     5244 1
    5461     5180     5245 1
    5462     5180     5246 1
    5463     5247     5248 1
    5464     5247     5254 1
    5465     5247     5286 1
    5466     5248     5249 1
    5467     5248     5252 1
    5468     5249     5250 1
    5469     5249     5253 1
    5470     5250     5251 1
    5471     5251     5252 1
    5472     5251     5262 1
    5473     5252     5258 1
    5474     5253     5254 1
    5475     5253     5257 1
    5476     5254     5255 1
    5477     5255     5256 1
    5478     5255     5259 1
    5479     5256     5257 1
    5480     5260     5261 1
    5481     5260     5268 1
    5482     5261     5262 1
    5483     5261     5269 1
    5484     5262     5263 1
    5485     5263     5264 1
    5486     5263     5267 1
    5487     5264     5265 1
    5488     5265     5266 1
    5489     5266     5267 1
    5490     5267     5268 1
    5491     5268     5378 1
    5492     5270     5271 1
    5493     5270     5303 1
    5494     5270     5304 1
    5495     5270     5305 1
    5496     5271     5272 1
    5497     5271     5306 1
    5498     5271     5307 1
    5499     5272     5273 1
    5500     5272     5308 1
    5501     5272     5309 1
    5502     5273     5274 1
    5503     5273     5310 1
    5504     5273     5311 1
    5505     5274     5275 1
    5506     5274     5312 1
    5507     5274     5313 1
    5508     5275     5276 1
    5509     5275     5314 1
    5510     5275     5315 1
    5511     5276     5277 1
    5512     5276     5316 1
    5513     5276     5317 1
    5514     5277     5278 1
    5515     5277     5318 1
    5516     5277     5319 1
    5517     5278     5279 1
    5518     5278     5285 1
    5519     5278     5320 1
    5520     5279     5280 1
    5521     5279     5321 1
    5522     5279     5322 1
    5523     5280     5281 1
    5524     5280     5323 1
    5525     5280     5324 1
    5526     5281     5282 1
    5527     5281     5325 1
    5528     5281     5326 1
    5529     5282     5283 1
    5530     5282     5327 1
    5531     5282     5328 1
    5532     5283     5284 1
    5533     5283     5329 1
    5534     5283     5330 1
    5535     5284     5331 1
    5536     5284     5332 1
    5537     5284     5333 1
    5538     5285     5286 1
    5539     5285     5334 1
    5540     5285     5335 1
    5541     5286     5287 1
    5542     5287     5288 1
    5543     5287     5336 1
    5544     5287     5337 1
    5545     5288     5289 1
    5546     5288     5295 1
    5547     5288     5338 1
    5548     5289     5290 1
    5549     5289     5339 1
    5550     5289     5340 1
    5551     5290     5291 1
    5552     5290     5341 1
    5553     5290     5342 1
    5554     5291     5292 1
    5555     5291     5343 1
    5556     5291     5344 1
    5557     5292     5293 1
    5558     5292     5345 1
    5559     5292     5346 1
    5560     5293     5294 1
    5561     5293     5347 1
    5562     5293     5348 1
    5563     5294     5349 1
    5564     5294     5350 1
    5565     5294     5351 1
    5566     5295     5296 1
    5567     5295     5352 1
    5568     5295     5353 1
    5569     5296     5297 1
    5570     5296     5354 1
    5571     5296     5355 1
    5572     5297     5298 1
    5573     5297     5356 1
    5574     5297     5357 1
    5575     5298     5299 1
    5576     5298     5358 1
    5577     5298     5359 1
    5578     5299     5300 1
    5579     5299     5360 1
    5580     5299     5361 1
    5581     5300     5301 1
    5582     5300     5362 1
    5583     5300     5363 1
    5584     5301     5302 1
    5585     5301     5364 1
    5586     5301     5365 1
    5587     5302     5366 1
    5588     5302     5367 1
    5589     5302     5368 1
    5590     5369     5370 1
    5591     5369     5376 1
    5592     5369     5408 1
    5593     5370     5371 1
    5594     5370     5374 1
    5595     5371     5372 1
    5596     5371     5375 1
    5597     5372     5373 1
    5598     5373     5374 1
    5599     5373     5384 1
    5600     5374     5380 1
    5601     5375     5376 1
    5602     5375     5379 1
    5603     5376     5377 1
    5604     5377     5378 1
    5605     5377     5381 1
    5606     5378     5379 1
    5607     5382     5383 1
    5608     5382     5390 1
    5609     5383     5384 1
    5610     5383     5391 1
    5611     5384     5385 1
    5612     5385     5386 1
    5613     5385     5389 1
    5614     5386     5387 1
    5615     5387     5388 1
    5616     5388     5389 1
    5617     5389     5390 1
    5618     5390     5500 1
    5619     5392     5393 1
    5620     5392     5425 1
    5621     5392     5426 1
    5622     5392     5427 1
    5623     5393     5394 1
    5624     5393     5428 1
    5625     5393     5429 1
    5626     5394     5395 1
    5627     5394     5430 1
    5628     5394     5431 1
    5629     5395     5396 1
    5630     5395     5432 1
    5631     5395     5433 1
    5632     5396     5397 1
    5633     5396     5434 1
    5634     5396     5435 1
    5635     5397     5398 1
    5636     5397     5436 1
    5637     5397     5437 1
    5638     5398     5399 1
    5639     5398     5438 1
    5640     5398     5439 1
    5641     5399     5400 1
    5642     5399     5440 1
    5643     5399     5441 1
    5644     5400     5401 1
    5645     5400     5407 1
    5646     5400     5442 1
    5647     5401     5402 1
    5648     5401     5443 1
    5649     5401     5444 1
    5650     5402     5403 1
    5651     5402     5445 1
    5652     5402     5446 1
    5653     5403     5404 1
    5654     5403     5447 1
    5655     5403     5448 1
    5656     5404     5405 1
    5657     5404     5449 1
    5658     5404     5450 1
    5659     5405     5406 1
    5660     5405     5451 1
    5661     5405     5452 1
    5662     5406     5453 1
    5663     5406     5454 1
    5664     5406     5455 1
    5665     5407     5408 1
    5666     5407     5456 1
    5667     5407     5457 1
    5668     5408     5409 1
    5669     5409     5410 1
    5670     5409     5458 1
    5671     5409     5459 1
    5672     5410     5411 1
    5673     5410     5417 1
    5674     5410     5460 1
    5675     5411     5412 1
    5676     5411     5461 1
    5677     5411     5462 1
    5678     5412     5413 1
    5679     5412     5463 1
    5680     5412     5464 1
    5681     5413     5414 1
    5682     5413     5465 1
    5683     5413     5466 1
    5684     5414     5415 1
    5685     5414     5467 1
    5686     5414     5468 1
    5687     5415     5416 1
    5688     5415     5469 1
    5689     5415     5470 1
    5690     5416     5471 1
    5691     5416     5472 1
    5692     5416     5473 1
    5693     5417     5418 1
    5694     5417     5474 1
    5695     5417     5475 1
    5696     5418     5419 1
    5697     5418     5476 1
    5698     5418     5477 1
    5699     5419     5420 1
    5700     5419     5478 1
    5701     5419     5479 1
    5702     5420     5421 1
    5703     5420     5480 1
    5704     5420     5481 1
    5705     5421     5422 1
    5706     5421     5482 1
    5707     5421     5483 1
    5708     5422     5423 1
    5709     5422     5484 1
    5710     5422     5485 1
    5711     5423     5424 1
    5712     5423     5486 1
    5713     5423     5487 1
    5714     5424     5488 1
    5715     5424     5489 1
    5716     5424     5490 1
    5717     5491     5492 1
    5718     5491     5498 1
    5719     5491     5530 1
    5720     5492     5493 1
    5721     5492     5496 1
    5722     5493     5494 1
    5723     5493     5497 1
    5724     5494     5495 1
    5725     5495     5496 1
    5726     5495     5506 1
    5727     5496     5502 1
    5728     5497     5498 1
    5729     5497     5501 1
    5730     5498     5499 1
    5731     5499     5500 1
    5732     5499     5503 1
    5733     5500     5501 1
    5734     5504     5505 1
    5735     5504     5512 1
    5736     5505     5506 1
    5737     5505     5513 1
    5738     5506     5507 1
    5739     5507     5508 1
    5740     5507     5511 1
    5741     5508     5509 1
    5742     5509     5510 1
    5743     5510     5511 1
    5744     5511     5512 1
    5745     5512     5622 1
    5746     5514     5515 1
    5747     5514     5547 1
    5748     5514     5548 1
    5749     5514     5549 1
    5750     5515     5516 1
    5751     5515     5550 1
    5752     5515     5551 1
    5753     5516     5517 1
    5754     5516     5552 1
    5755     5516     5553 1
    5756     5517     5518 1
    5757     5517     5554 1
    5758     5517     5555 1
    5759     5518     5519 1
    5760     5518     5556 1
    5761     5518     5557 1
    5762     5519     5520 1
    5763     5519     5558 1
    5764     5519     5559 1
    5765     5520     5521 1
    5766     5520     5560 1
    5767     5520     5561 1
    5768     5521     5522 1
    5769     5521     5562 1
    5770     5521     5563 1
    5771     5522     5523 1
    5772     5522     5529 1
    5773     5522     5564 1
    5774     5523     5524 1
    5775     5523     5565 1
    5776     5523     5566 1
    5777     5524     5525 1
    5778     5524     5567 1
    5779     5524     5568 1
    5780     5525     5526 1
    5781     5525     5569 1
    5782     5525     5570 1
    5783     5526     5527 1
    5784     5526     5571 1
    5785     5526     5572 1
    5786     5527     5528 1
    5787     5527     5573 1
    5788     5527     5574 1
    5789     5528     5575 1
    5790     5528     5576 1
    5791     5528     5577 1
    5792     5529     5530 1
    5793     5529     5578 1
    5794     5529     5579 1
    5795     5530     5531 1
    5796     5531     5532 1
    5797     5531     5580 1
    5798     5531     5581 1
    5799     5532     5533 1
    5800     5532     5539 1
    5801     5532     5582 1
    5802     5533     5534 1
    5803     5533     5583 1
    5804     5533     5584 1
    5805     5534     5535 1
    5806     5534     5585 1
    5807     5534     5586 1
    5808     5535     5536 1
    5809     5535     5587 1
    5810     5535     5588 1
    5811     5536     5537 1
    5812     5536     5589 1
    5813     5536     5590 1
    5814     5537     5538 1
    5815     5537     5591 1
    5816     5537     5592 1
    5817     5538     5593 1
    5818     5538     5594 1
    5819     5538     5595 1
    5820     5539     5540 1
    5821     5539     5596 1
    5822     5539     5597 1
    5823     5540     5541 1
    5824     5540     5598 1
    5825     5540     5599 1
    5826     5541     5542 1
    5827     5541     5600 1
    5828     5541     5601 1
    5829     5542     5543 1
    5830     5542     5602 1
    5831     5542     5603 1
    5832     5543     5544 1
    5833     5543     5604 1
    5834     5543     5605 1
    5835     5544     5545 1
    5836     5544     5606 1
    5837     5544     5607 1
    5838     5545     5546 1
    5839     5545     5608 1
    5840     5545     5609 1
    5841     5546     5610 1
    5842     5546     5611 1
    5843     5546     5612 1
    5844     5613     5614 1
    5845     5613     5620 1
    5846     5613     5652 1
    5847     5614     5615 1
    5848     5614     5618 1
    5849     5615     5616 1
    5850     5615     5619 1
    5851     5616     5617 1
    5852     5617     5618 1
    5853     5617     5628 1
    5854     5618     5624 1
    5855     5619     5620 1
    5856     5619     5623 1
    5857     5620     5621 1
    5858     5621     5622 1
    5859     5621     5625 1
    5860     5622     5623 1
    5861     5626     5627 1
    5862     5626     5634 1
    5863     5627     5628 1
    5864     5627     5635 1
    5865     5628     5629 1
    5866     5629     5630 1
    5867     5629     5633 1
    5868     5630     5631 1
    5869     5631     5632 1
    5870     5632     5633 1
    5871     5633     5634 1
    5872     5634     5744 1
    5873     5636     5637 1
    5874     5636     5669 1
    5875     5636     5670 1
    5876     5636     5671 1
    5877     5637     5638 1
    5878     5637     5672 1
    5879     5637     5673 1
    5880     5638     5639 1
    5881     5638     5674 1
    5882     5638     5675 1
    5883     5639     5640 1
    5884     5639     5676 1
    5885     5639     5677 1
    5886     5640     5641 1
    5887     5640     5678 1
    5888     5640     5679 1
    5889     5641     5642 1
    5890     5641     5680 1
    5891     5641     5681 1
    5892     5642     5643 1
    5893     5642     5682 1
    5894     5642     5683 1
    5895     5643     5644 1
    5896     5643     5684 1
    5897     5643     5685 1
    5898     5644     5645 1
    5899     5644     5651 1
    5900     5644     5686 1
    5901     5645     5646 1
    5902     5645     5687 1
    5903     5645     5688 1
    5904     5646     5647 1
    5905     5646     5689 1
    5906     5646     5690 1
    5907     5647     5648 1
    5908     5647     5691 1
    5909     5647     5692 1
    5910     5648     5649 1
    5911     5648     5693 1
    5912     5648     5694 1
    5913     5649     5650 1
    5914     5649     5695 1
    5915     5649     5696 1
    5916     5650     5697 1
    5917     5650     5698 1
    5918     5650     5699 1
    5919     5651     5652 1
    5920     5651     5700 1
    5921     5651     5701 1
    5922     5652     5653 1
    5923     5653     5654 1
    5924     5653     5702 1
    5925     5653     5703 1
    5926     5654     5655 1
    5927     5654     5661 1
    5928     5654     5704 1
    5929     5655     5656 1
    5930     5655     5705 1
    5931     5655     5706 1
    5932     5656     5657 1
    5933     5656     5707 1
    5934     5656     5708 1
    5935     5657     5658 1
    5936     5657     5709 1
    5937     5657     5710 1
    5938     5658     5659 1
    5939     5658     5711 1
    5940     5658     5712 1
    5941     5659     5660 1
    5942     5659     5713 1
    5943     5659     5714 1
    5944     5660     5715 1
    5945     5660     5716 1
    5946     5660     5717 1
    5947     5661     5662 1
    5948     5661     5718 1
    5949     5661     5719 1
    5950     5662     5663 1
    5951     5662     5720 1
    5952     5662     5721 1
    5953     5663     5664 1
    5954     5663     5722 1
    5955     5663     5723 1
    5956     5664     5665 1
    5957     5664     5724 1
    5958     5664     5725 1
    5959     5665     5666 1
    5960     5665     5726 1
    5961     5665     5727 1
    5962     5666     5667 1
    5963     5666     5728 1
    5964     5666     5729 1
    5965     5667     5668 1
    5966     5667     5730 1
    5967     5667     5731 1
    5968     5668     5732 1
    5969     5668     5733 1
    5970     5668     5734 1
    5971     5735     5736 1
    5972     5735     5742 1
    5973     5735     5774 1
    5974     5736     5737 1
    5975     5736     5740 1
    5976     5737     5738 1
    5977     5737     5741 1
    5978     5738     5739 1
    5979     5739     5740 1
    5980     5739     5750 1
    5981     5740     5746 1
    5982     5741     5742 1
    5983     5741     5745 1
    5984     5742     5743 1
    5985     5743     5744 1
    5986     5743     5747 1
    5987     5744     5745 1
    5988     5748     5749 1
    5989     5748     5756 1
    5990     5749     5750 1
    5991     5749     5757 1
    5992     5750     5751 1
    5993     5751     5752 1
    5994     5751     5755 1
    5995     5752     5753 1
    5996     5753     5754 1
    5997     5754     5755 1
    5998     5755     5756 1
    5999     5756     5866 1
    6000     5758     5759 1
    6001     5758     5791 1
    6002     5758     5792 1
    6003     5758     5793 1
    6004     5759     5760 1
    6005     5759     5794 1
    6006     5759     5795 1
    6007     5760     5761 1
    6008     5760     5796 1
    6009     5760     5797 1
    6010     5761     5762 1
    6011     5761     5798 1
    6012     5761     5799 1
    6013     5762     5763 1
    6014     5762     5800 1
    6015     5762     5801 1
    6016     5763     5764 1
    6017     5763     5802 1
    6018     5763     5803 1
    6019     5764     5765 1
    6020     5764     5804 1
    6021     5764     5805 1
    6022     5765     5766 1
    6023     5765     5806 1
    6024     5765     5807 1
    6025     5766     5767 1
    6026     5766     5773 1
    6027     5766     5808 1
    6028     5767     5768 1
    6029     5767     5809 1
    6030     5767     5810 1
    6031     5768     5769 1
    6032     5768     5811 1
    6033     5768     5812 1
    6034     5769     5770 1
    6035     5769     5813 1
    6036     5769     5814 1
    6037     5770     5771 1
    6038     5770     5815 1
    6039     5770     5816 1
    6040     5771     5772 1
    6041     5771     5817 1
    6042     5771     5818 1
    6043     5772     5819 1
    6044     5772     5820 1
    6045     5772     5821 1
    6046     5773     5774 1
    6047     5773     5822 1
    6048     5773     5823 1
    6049     5774     5775 1
    6050     5775     5776 1
    6051     5775     5824 1
    6052     5775     5825 1
    6053     5776     5777 1
    6054     5776     5783 1
    6055     5776     5826 1
    6056     5777     5778 1
    6057     5777     5827 1
    6058     5777     5828 1
    6059     5778     5779 1
    6060     5778     5829 1
    6061     5778     5830 1
    6062     5779     5780 1
    6063     5779     5831 1
    6064     5779     5832 1
    6065     5780     5781 1
    6066     5780     5833 1
    6067     5780     5834 1
    6068     5781     5782 1
    6069     5781     5835 1
    6070     5781     5836 1
    6071     5782     5837 1
    6072     5782     5838 1
    6073     5782     5839 1
    6074     5783     5784 1
    6075     5783     5840 1
    6076     5783     5841 1
    6077     5784     5785 1
    6078     5784     5842 1
    6079     5784     5843 1
    6080     5785     5786 1
    6081     5785     5844 1
    6082     5785     5845 1
    6083     5786     5787 1
    6084     5786     5846 1
    6085     5786     5847 1
    6086     5787     5788 1
    6087     5787     5848 1
    6088     5787     5849 1
    6089     5788     5789 1
    6090     5788     5850 1
    6091     5788     5851 1
    6092     5789     5790 1
    6093     5789     5852 1
    6094     5789     5853 1
    6095     5790     5854 1
    6096     5790     5855 1
    6097     5790     5856 1
    6098     5857     5858 1
    6099     5857     5864 1
    6100     5857     5896 1
    6101     5858     5859 1
    6102     5858     5862 1
    6103     5859     5860 1
    6104     5859     5863 1
    6105     5860     5861 1
    6106     5861     5862 1
    6107     5861     5872 1
    6108     5862     5868 1
    6109     5863     5864 1
    6110     5863     5867 1
    6111     5864     5865 1
    6112     5865     5866 1
    6113     5865     5869 1
    6114     5866     5867 1
    6115     5870     5871 1
    6116     5870     5878 1
    6117     5871     5872 1
    6118     5871     5879 1
    6119     5872     5873 1
    6120     5873     5874 1
    6121     5873     5877 1
    6122     5874     5875 1
    6123     5875     5876 1
    6124     5876     5877 1
    6125     5877     5878 1
    6126     5878     5988 1
    6127     5880     5881 1
    6128     5880     5913 1
    6129     5880     5914 1
    6130     5880     5915 1
    6131     5881     5882 1
    6132     5881     5916 1
    6133     5881     5917 1
    6134     5882     5883 1
    6135     5882     5918 1
    6136     5882     5919 1
    6137     5883     5884 1
    6138     5883     5920 1
    6139     5883     5921 1
    6140     5884     5885 1
    6141     5884     5922 1
    6142     5884     5923 1
    6143     5885     5886 1
    6144     5885     5924 1
    6145     5885     5925 1
    6146     5886     5887 1
    6147     5886     5926 1
    6148     5886     5927 1
    6149     5887     5888 1
    6150     5887     5928 1
    6151     5887     5929 1
    6152     5888     5889 1
    6153     5888     5895 1
    6154     5888     5930 1
    6155     5889     5890 1
    6156     5889     5931 1
    6157     5889     5932 1
    6158     5890     5891 1
    6159     5890     5933 1
    6160     5890     5934 1
    6161     5891     5892 1
    6162     5891     5935 1
    6163     5891     5936 1
    6164     5892     5893 1
    6165     5892     5937 1
    6166     5892     5938 1
    6167     5893     5894 1
    6168     5893     5939 1
    6169     5893     5940 1
    6170     5894     5941 1
    6171     5894     5942 1
    6172     5894     5943 1
    6173     5895     5896 1
    6174     5895     5944 1
    6175     5895     5945 1
    6176     5896     5897 1
    6177     5897     5898 1
    6178     5897     5946 1
    6179     5897     5947 1
    6180     5898     5899 1
    6181     5898     5905 1
    6182     5898     5948 1
    6183     5899     5900 1
    6184     5899     5949 1
    6185     5899     5950 1
    6186     5900     5901 1
    6187     5900     5951 1
    6188     5900     5952 1
    6189     5901     5902 1
    6190     5901     5953 1
    6191     5901     5954 1
    6192     5902     5903 1
    6193     5902     5955 1
    6194     5902     5956 1
    6195     5903     5904 1
    6196     5903     5957 1
    6197     5903     5958 1
    6198     5904     5959 1
    6199     5904     5960 1
    6200     5904     5961 1
    6201     5905     5906 1
    6202     5905     5962 1
    6203     5905     5963 1
    6204     5906     5907 1
    6205     5906     5964 1
    6206     5906     5965 1
    6207     5907     5908 1
    6208     5907     5966 1
    6209     5907     5967 1
    6210     5908     5909 1
    6211     5908     5968 1
    6212     5908     5969 1
    6213     5909     5910 1
    6214     5909     5970 1
    6215     5909     5971 1
    6216     5910     5911 1
    6217     5910     5972 1
    6218     5910     5973 1
    6219     5911     5912 1
    6220     5911     5974 1
    6221     5911     5975 1
    6222     5912     5976 1
    6223     5912     5977 1
    6224     5912     5978 1
    6225     5979     5980 1
    6226     5979     5986 1
    6227     5979     6018 1
    6228     5980     5981 1
    6229     5980     5984 1
    6230     5981     5982 1
    6231     5981     5985 1
    6232     5982     5983 1
    6233     5983     5984 1
    6234     5983     5994 1
    6235     5984     5990 1
    6236     5985     5986 1
    6237     5985     5989 1
    6238     5986     5987 1
    6239     5987     5988 1
    6240     5987     5991 1
    6241     5988     5989 1
    6242     5992     5993 1
    6243     5992     6000 1
    6244     5993     5994 1
    6245     5993     6001 1
    6246     5994     5995 1
    6247     5995     5996 1
    6248     5995     5999 1
    6249     5996     5997 1
    6250     5997     5998 1
    6251     5998     5999 1
    6252     5999     6000 1
    6253     6000     6110 1
    6254     6002     6003 1
    6255     6002     6035 1
    6256     6002     6036 1
    6257     6002     6037 1
    6258     6003     6004 1
    6259     6003     6038 1
    6260     6003     6039 1
    6261     6004     6005 1
    6262     6004     6040 1
    6263     6004     6041 1
    6264     6005     6006 1
    6265     6005     6042 1
    6266     6005     6043 1
    6267     6006     6007 1
    6268     6006     6044 1
    6269     6006     6045 1
    6270     6007     6008 1
    6271     6007     6046 1
    6272     6007     6047 1
    6273     6008     6009 1
    6274     6008     6048 1
    6275     6008     6049 1
    6276     6009     6010 1
    6277     6009     6050 1
    6278     6009     6051 1
    6279     6010     6011 1
    6280     6010     6017 1
    6281     6010     6052 1
    6282     6011     6012 1
    6283     6011     6053 1
    6284     6011     6054 1
    6285     6012     6013 1
    6286     6012     6055 1
    6287     6012     6056 1
    6288     6013     6014 1
    6289     6013     6057 1
    6290     6013     6058 1
    6291     6014     6015 1
    6292     6014     6059 1
    6293     6014     6060 1
    6294     6015     6016 1
    6295     6015     6061 1
    6296     6015     6062 1
    6297     6016     6063 1
    6298     6016     6064 1
    6299     6016     6065 1
    6300     6017     6018 1
    6301     6017     6066 1
    6302     6017     6067 1
    6303     6018     6019 1
    6304     6019     6020 1
    6305     6019     6068 1
    6306     6019     6069 1
    6307     6020     6021 1
    6308     6020     6027 1
    6309     6020     6070 1
    6310     6021     6022 1
    6311     6021     6071 1
    6312     6021     6072 1
    6313     6022     6023 1
    6314     6022     6073 1
    6315     6022     6074 1
    6316     6023     6024 1
    6317     6023     6075 1
    6318     6023     6076 1
    6319     6024     6025 1
    6320     6024     6077 1
    6321     6024     6078 1
    6322     6025     6026 1
    6323     6025     6079 1
    6324     6025     6080 1
    6325     6026     6081 1
    6326     6026     6082 1
    6327     6026     6083 1
    6328     6027     6028 1
    6329     6027     6084 1
    6330     6027     6085 1
    6331     6028     6029 1
    6332     6028     6086 1
    6333     6028     6087 1
    6334     6029     6030 1
    6335     6029     6088 1
    6336     6029     6089 1
    6337     6030     6031 1
    6338     6030     6090 1
    6339     6030     6091 1
    6340     6031     6032 1
    6341     6031     6092 1
    6342     6031     6093 1
    6343     6032     6033 1
    6344     6032     6094 1
    6345     6032     6095 1
    6346     6033     6034 1
    6347     6033     6096 1
    6348     6033     6097 1
    6349     6034     6098 1
    6350     6034     6099 1
    6351     6034     6100 1
    6352     6101     6102 1
    6353     6101     6108 1
    6354     6101     6140 1
    6355     6102     6103 1
    6356     6102     6106 1
    6357     6103     6104 1
    6358     6103     6107 1
    6359     6104     6105 1
    6360     6105     6106 1
    6361     6105     6116 1
    6362     6106     6112 1
    6363     6107     6108 1
    6364     6107     6111 1
    6365     6108     6109 1
    6366     6109     6110 1
    6367     6109     6113 1
    6368     6110     6111 1
    6369     6114     6115 1
    6370     6114     6122 1
    6371     6115     6116 1
    6372     6115     6123 1
    6373     6116     6117 1
    6374     6117     6118 1
    6375     6117     6121 1
    6376     6118     6119 1
    6377     6119     6120 1
    6378     6120     6121 1
    6379     6121     6122 1
    6380     6122     6232 1
    6381     6124     6125 1
    6382     6124     6157 1
    6383     6124     6158 1
    6384     6124     6159 1
    6385     6125     6126 1
    6386     6125     6160 1
    6387     6125     6161 1
    6388     6126     6127 1
    6389     6126     6162 1
    6390     6126     6163 1
    6391     6127     6128 1
    6392     6127     6164 1
    6393     6127     6165 1
    6394     6128     6129 1
    6395     6128     6166 1
    6396     6128     6167 1
    6397     6129     6130 1
    6398     6129     6168 1
    6399     6129     6169 1
    6400     6130     6131 1
    6401     6130     6170 1
    6402     6130     6171 1
    6403     6131     6132 1
    6404     6131     6172 1
    6405     6131     6173 1
    6406     6132     6133 1
    6407     6132     6139 1
    6408     6132     6174 1
    6409     6133     6134 1
    6410     6133     6175 1
    6411     6133     6176 1
    6412     6134     6135 1
    6413     6134     6177 1
    6414     6134     6178 1
    6415     6135     6136 1
    6416     6135     6179 1
    6417     6135     6180 1
    6418     6136     6137 1
    6419     6136     6181 1
    6420     6136     6182 1
    6421     6137     6138 1
    6422     6137     6183 1
    6423     6137     6184 1
    6424     6138     6185 1
    6425     6138     6186 1
    6426     6138     6187 1
    6427     6139     6140 1
    6428     6139     6188 1
    6429     6139     6189 1
    6430     6140     6141 1
    6431     6141     6142 1
    6432     6141     6190 1
    6433     6141     6191 1
    6434     6142     6143 1
    6435     6142     6149 1
    6436     6142     6192 1
    6437     6143     6144 1
    6438     6143     6193 1
    6439     6143     6194 1
    6440     6144     6145 1
    6441     6144     6195 1
    6442     6144     6196 1
    6443     6145     6146 1
    6444     6145     6197 1
    6445     6145     6198 1
    6446     6146     6147 1
    6447     6146     6199 1
    6448     6146     6200 1
    6449     6147     6148 1
    6450     6147     6201 1
    6451     6147     6202 1
    6452     6148     6203 1
    6453     6148     6204 1
    6454     6148     6205 1
    6455     6149     6150 1
    6456     6149     6206 1
    6457     6149     6207 1
    6458     6150     6151 1
    6459     6150     6208 1
    6460     6150     6209 1
    6461     6151     6152 1
    6462     6151     6210 1
    6463     6151     6211 1
    6464     6152     6153 1
    6465     6152     6212 1
    6466     6152     6213 1
    6467     6153     6154 1
    6468     6153     6214 1
    6469     6153     6215 1
    6470     6154     6155 1
    6471     6154     6216 1
    6472     6154     6217 1
    6473     6155     6156 1
    6474     6155     6218 1
    6475     6155     6219 1
    6476     6156     6220 1
    6477     6156     6221 1
    6478     6156     6222 1
    6479     6223     6224 1
    6480     6223     6230 1
    6481     6223     6262 1
    6482     6224     6225 1
    6483     6224     6228 1
    6484     6225     6226 1
    6485     6225     6229 1
    6486     6226     6227 1
    6487     6227     6228 1
    6488     6227     6238 1
    6489     6228     6234 1
    6490     6229     6230 1
    6491     6229     6233 1
    6492     6230     6231 1
    6493     6231     6232 1
    6494     6231     6235 1
    6495     6232     6233 1
    6496     6236     6237 1
    6497     6236     6244 1
    6498     6237     6238 1
    6499     6237     6245 1
    6500     6238     6239 1
    6501     6239     6240 1
    6502     6239     6243 1
    6503     6240     6241 1
    6504     6241     6242 1
    6505     6242     6243 1
    6506     6243     6244 1
    6507     6244     6354 1
    6508     6246     6247 1
    6509     6246     6279 1
    6510     6246     6280 1
    6511     6246     6281 1
    6512     6247     6248 1
    6513     6247     6282 1
    6514     6247     6283 1
    6515     6248     6249 1
    6516     6248     6284 1
    6517     6248     6285 1
    6518     6249     6250 1
    6519     6249     6286 1
    6520     6249     6287 1
    6521     6250     6251 1
    6522     6250     6288 1
    6523     6250     6289 1
    6524     6251     6252 1
    6525     6251     6290 1
    6526     6251     6291 1
    6527     6252     6253 1
    6528     6252     6292 1
    6529     6252     6293 1
    6530     6253     6254 1
    6531     6253     6294 1
    6532     6253     6295 1
    6533     6254     6255 1
    6534     6254     6261 1
    6535     6254     6296 1
    6536     6255     6256 1
    6537     6255     6297 1
    6538     6255     6298 1
    6539     6256     6257 1
    6540     6256     6299 1
    6541     6256     6300 1
    6542     6257     6258 1
    6543     6257     6301 1
    6544     6257     6302 1
    6545     6258     6259 1
    6546     6258     6303 1
    6547     6258     6304 1
    6548     6259     6260 1
    6549     6259     6305 1
    6550     6259     6306 1
    6551     6260     6307 1
    6552     6260     6308 1
    6553     6260     6309 1
    6554     6261     6262 1
    6555     6261     6310 1
    6556     6261     6311 1
    6557     6262     6263 1
    6558     6263     6264 1
    6559     6263     6312 1
    6560     6263     6313 1
    6561     6264     6265 1
    6562     6264     6271 1
    6563     6264     6314 1
    6564     6265     6266 1
    6565     6265     6315 1
    6566     6265     6316 1
    6567     6266     6267 1
    6568     6266     6317 1
    6569     6266     6318 1
    6570     6267     6268 1
    6571     6267     6319 1
    6572     6267     6320 1
    6573     6268     6269 1
    6574     6268     6321 1
    6575     6268     6322 1
    6576     6269     6270 1
    6577     6269     6323 1
    6578     6269     6324 1
    6579     6270     6325 1
    6580     6270     6326 1
    6581     6270     6327 1
    6582     6271     6272 1
    6583     6271     6328 1
    6584     6271     6329 1
    6585     6272     6273 1
    6586     6272     6330 1
    6587     6272     6331 1
    6588     6273     6274 1
    6589     6273     6332 1
    6590     6273     6333 1
    6591     6274     6275 1
    6592     6274     6334 1
    6593     6274     6335 1
    6594     6275     6276 1
    6595     6275     6336 1
    6596     6275     6337 1
    6597     6276     6277 1
    6598     6276     6338 1
    6599     6276     6339 1
    6600     6277     6278 1
    6601     6277     6340 1
    6602     6277     6341 1
    6603     6278     6342 1
    6604     6278     6343 1
    6605     6278     6344 1
    6606     6345     6346 1
    6607     6345     6352 1
    6608     6345     6384 1
    6609     6346     6347 1
    6610     6346     6350 1
    6611     6347     6348 1
    6612     6347     6351 1
    6613     6348     6349 1
    6614     6349     6350 1
    6615     6349     6360 1
    6616     6350     6356 1
    6617     6351     6352 1
    6618     6351     6355 1
    6619     6352     6353 1
    6620     6353     6354 1
    6621     6353     6357 1
    6622     6354     6355 1
    6623     6358     6359 1
    6624     6358     6366 1
    6625     6359     6360 1
    6626     6359     6367 1
    6627     6360     6361 1
    6628     6361     6362 1
    6629     6361     6365 1
    6630     6362     6363 1
    6631     6363     6364 1
    6632     6364     6365 1
    6633     6365     6366 1
    6634     6366     6476 1
    6635     6368     6369 1
    6636     6368     6401 1
    6637     6368     6402 1
    6638     6368     6403 1
    6639     6369     6370 1
    6640     6369     6404 1
    6641     6369     6405 1
    6642     6370     6371 1
    6643     6370     6406 1
    6644     6370     6407 1
    6645     6371     6372 1
    6646     6371     6408 1
    6647     6371     6409 1
    6648     6372     6373 1
    6649     6372     6410 1
    6650     6372     6411 1
    6651     6373     6374 1
    6652     6373     6412 1
    6653     6373     6413 1
    6654     6374     6375 1
    6655     6374     6414 1
    6656     6374     6415 1
    6657     6375     6376 1
    6658     6375     6416 1
    6659     6375     6417 1
    6660     6376     6377 1
    6661     6376     6383 1
    6662     6376     6418 1
    6663     6377     6378 1
    6664     6377     6419 1
    6665     6377     6420 1
    6666     6378     6379 1
    6667     6378     6421 1
    6668     6378     6422 1
    6669     6379     6380 1
    6670     6379     6423 1
    6671     6379     6424 1
    6672     6380     6381 1
    6673     6380     6425 1
    6674     6380     6426 1
    6675     6381     6382 1
    6676     6381     6427 1
    6677     6381     6428 1
    6678     6382     6429 1
    6679     6382     6430 1
    6680     6382     6431 1
    6681     6383     6384 1
    6682     6383     6432 1
    6683     6383     6433 1
    6684     6384     6385 1
    6685     6385     6386 1
    6686     6385     6434 1
    6687     6385     6435 1
    6688     6386     6387 1
    6689     6386     6393 1
    6690     6386     6436 1
    6691     6387     6388 1
    6692     6387     6437 1
    6693     6387     6438 1
    6694     6388     6389 1
    6695     6388     6439 1
    6696     6388     6440 1
    6697     6389     6390 1
    6698     6389     6441 1
    6699     6389     6442 1
    6700     6390     6391 1
    6701     6390     6443 1
    6702     6390     6444 1
    6703     6391     6392 1
    6704     6391     6445 1
    6705     6391     6446 1
    6706     6392     6447 1
    6707     6392     6448 1
    6708     6392     6449 1
    6709     6393     6394 1
    6710     6393     6450 1
    6711     6393     6451 1
    6712     6394     6395 1
    6713     6394     6452 1
    6714     6394     6453 1
    6715     6395     6396 1
    6716     6395     6454 1
    6717     6395     6455 1
    6718     6396     6397 1
    6719     6396     6456 1
    6720     6396     6457 1
    6721     6397     6398 1
    6722     6397     6458 1
    6723     6397     6459 1
    6724     6398     6399 1
    6725     6398     6460 1
    6726     6398     6461 1
    6727     6399     6400 1
    6728     6399     6462 1
    6729     6399     6463 1
    6730     6400     6464 1
    6731     6400     6465 1
    6732     6400     6466 1
    6733     6467     6468 1
    6734     6467     6474 1
    6735     6467     6506 1
    6736     6468     6469 1
    6737     6468     6472 1
    6738     6469     6470 1
    6739     6469     6473 1
    6740     6470     6471 1
    6741     6471     6472 1
    6742     6471     6482 1
    6743     6472     6478 1
    6744     6473     6474 1
    6745     6473     6477 1
    6746     6474     6475 1
    6747     6475     6476 1
    6748     6475     6479 1
    6749     6476     6477 1
    6750     6480     6481 1
    6751     6480     6488 1
    6752     6481     6482 1
    6753     6481     6489 1
    6754     6482     6483 1
    6755     6483     6484 1
    6756     6483     6487 1
    6757     6484     6485 1
    6758     6485     6486 1
    6759     6486     6487 1
    6760     6487     6488 1
    6761     6488     6598 1
    6762     6490     6491 1
    6763     6490     6523 1
    6764     6490     6524 1
    6765     6490     6525 1
    6766     6491     6492 1
    6767     6491     6526 1
    6768     6491     6527 1
    6769     6492     6493 1
    6770     6492     6528 1
    6771     6492     6529 1
    6772     6493     6494 1
    6773     6493     6530 1
    6774     6493     6531 1
    6775     6494     6495 1
    6776     6494     6532 1
    6777     6494     6533 1
    6778     6495     6496 1
    6779     6495     6534 1
    6780     6495     6535 1
    6781     6496     6497 1
    6782     6496     6536 1
    6783     6496     6537 1
    6784     6497     6498 1
    6785     6497     6538 1
    6786     6497     6539 1
    6787     6498     6499 1
    6788     6498     6505 1
    6789     6498     6540 1
    6790     6499     6500 1
    6791     6499     6541 1
    6792     6499     6542 1
    6793     6500     6501 1
    6794     6500     6543 1
    6795     6500     6544 1
    6796     6501     6502 1
    6797     6501     6545 1
    6798     6501     6546 1
    6799     6502     6503 1
    6800     6502     6547 1
    6801     6502     6548 1
    6802     6503     6504 1
    6803     6503     6549 1
    6804     6503     6550 1
    6805     6504     6551 1
    6806     6504     6552 1
    6807     6504     6553 1
    6808     6505     6506 1
    6809     6505     6554 1
    6810     6505     6555 1
    6811     6506     6507 1
    6812     6507     6508 1
    6813     6507     6556 1
    6814     6507     6557 1
    6815     6508     6509 1
    6816     6508     6515 1
    6817     6508     6558 1
    6818     6509     6510 1
    6819     6509     6559 1
    6820     6509     6560 1
    6821     6510     6511 1
    6822     6510     6561 1
    6823     6510     6562 1
    6824     6511     6512 1
    6825     6511     6563 1
    6826     6511     6564 1
    6827     6512     6513 1
    6828     6512     6565 1
    6829     6512     6566 1
    6830     6513     6514 1
    6831     6513     6567 1
    6832     6513     6568 1
    6833     6514     6569 1
    6834     6514     6570 1
    6835     6514     6571 1
    6836     6515     6516 1
    6837     6515     6572 1
    6838     6515     6573 1
    6839     6516     6517 1
    6840     6516     6574 1
    6841     6516     6575 1
    6842     6517     6518 1
    6843     6517     6576 1
    6844     6517     6577 1
    6845     6518     6519 1
    6846     6518     6578 1
    6847     6518     6579 1
    6848     6519     6520 1
    6849     6519     6580 1
    6850     6519     6581 1
    6851     6520     6521 1
    6852     6520     6582 1
    6853     6520     6583 1
    6854     6521     6522 1
    6855     6521     6584 1
    6856     6521     6585 1
    6857     6522     6586 1
    6858     6522     6587 1
    6859     6522     6588 1
    6860     6589     6590 1
    6861     6589     6596 1
    6862     6589     6628 1
    6863     6590     6591 1
    6864     6590     6594 1
    6865     6591     6592 1
    6866     6591     6595 1
    6867     6592     6593 1
    6868     6593     6594 1
    6869     6593     6604 1
    6870     6594     6600 1
    6871     6595     6596 1
    6872     6595     6599 1
    6873     6596     6597 1
    6874     6597     6598 1
    6875     6597     6601 1
    6876     6598     6599 1
    6877     6602     6603 1
    6878     6602     6610 1
    6879     6603     6604 1
    6880     6603     6611 1
    6881     6604     6605 1
    6882     6605     6606 1
    6883     6605     6609 1
    6884     6606     6607 1
    6885     6607     6608 1
    6886     6608     6609 1
    6887     6609     6610 1
    6888     6610     6720 1
    6889     6612     6613 1
    6890     6612     6645 1
    6891     6612     6646 1
    6892     6612     6647 1
    6893     6613     6614 1
    6894     6613     6648 1
    6895     6613     6649 1
    6896     6614     6615 1
    6897     6614     6650 1
    6898     6614     6651 1
    6899     6615     6616 1
    6900     6615     6652 1
    6901     6615     6653 1
    6902     6616     6617 1
    6903     6616     6654 1
    6904     6616     6655 1
    6905     6617     6618 1
    6906     6617     6656 1
    6907     6617     6657 1
    6908     6618     6619 1
    6909     6618     6658 1
    6910     6618     6659 1
    6911     6619     6620 1
    6912     6619     6660 1
    6913     6619     6661 1
    6914     6620     6621 1
    6915     6620     6627 1
    6916     6620     6662 1
    6917     6621     6622 1
    6918     6621     6663 1
    6919     6621     6664 1
    6920     6622     6623 1
    6921     6622     6665 1
    6922     6622     6666 1
    6923     6623     6624 1
    6924     6623     6667 1
    6925     6623     6668 1
    6926     6624     6625 1
    6927     6624     6669 1
    6928     6624     6670 1
    6929     6625     6626 1
    6930     6625     6671 1
    6931     6625     6672 1
    6932     6626     6673 1
    6933     6626     6674 1
    6934     6626     6675 1
    6935     6627     6628 1
    6936     6627     6676 1
    6937     6627     6677 1
    6938     6628     6629 1
    6939     6629     6630 1
    6940     6629     6678 1
    6941     6629     6679 1
    6942     6630     6631 1
    6943     6630     6637 1
    6944     6630     6680 1
    6945     6631     6632 1
    6946     6631     6681 1
    6947     6631     6682 1
    6948     6632     6633 1
    6949     6632     6683 1
    6950     6632     6684 1
    6951     6633     6634 1
    6952     6633     6685 1
    6953     6633     6686 1
    6954     6634     6635 1
    6955     6634     6687 1
    6956     6634     6688 1
    6957     6635     6636 1
    6958     6635     6689 1
    6959     6635     6690 1
    6960     6636     6691 1
    6961     6636     6692 1
    6962     6636     6693 1
    6963     6637     6638 1
    6964     6637     6694 1
    6965     6637     6695 1
    6966     6638     6639 1
    6967     6638     6696 1
    6968     6638     6697 1
    6969     6639     6640 1
    6970     6639     6698 1
    6971     6639     6699 1
    6972     6640     6641 1
    6973     6640     6700 1
    6974     6640     6701 1
    6975     6641     6642 1
    6976     6641     6702 1
    6977     6641     6703 1
    6978     6642     6643 1
    6979     6642     6704 1
    6980     6642     6705 1
    6981     6643     6644 1
    6982     6643     6706 1
    6983     6643     6707 1
    6984     6644     6708 1
    6985     6644     6709 1
    6986     6644     6710 1
    6987     6711     6712 1
    6988     6711     6718 1
    6989     6711     6750 1
    6990     6712     6713 1
    6991     6712     6716 1
    6992     6713     6714 1
    6993     6713     6717 1
    6994     6714     6715 1
    6995     6715     6716 1
    6996     6715     6726 1
    6997     6716     6722 1
    6998     6717     6718 1
    6999     6717     6721 1
    7000     6718     6719 1
    7001     6719     6720 1
    7002     6719     6723 1
    7003     6720     6721 1
    7004     6724     6725 1
    7005     6724     6732 1
    7006     6725     6726 1
    7007     6725     6733 1
    7008     6726     6727 1
    7009     6727     6728 1
    7010     6727     6731 1
    7011     6728     6729 1
    7012     6729     6730 1
    7013     6730     6731 1
    7014     6731     6732 1
    7015     6732     6842 1
    7016     6734     6735 1
    7017     6734     6767 1
    7018     6734     6768 1
    7019     6734     6769 1
    7020     6735     6736 1
    7021     6735     6770 1
    7022     6735     6771 1
    7023     6736     6737 1
    7024     6736     6772 1
    7025     6736     6773 1
    7026     6737     6738 1
    7027     6737     6774 1
    7028     6737     6775 1
    7029     6738     6739 1
    7030     6738     6776 1
    7031     6738     6777 1
    7032     6739     6740 1
    7033     6739     6778 1
    7034     6739     6779 1
    7035     6740     6741 1
    7036     6740     6780 1
    7037     6740     6781 1
    7038     6741     6742 1
    7039     6741     6782 1
    7040     6741     6783 1
    7041     6742     6743 1
    7042     6742     6749 1
    7043     6742     6784 1
    7044     6743     6744 1
    7045     6743     6785 1
    7046     6743     6786 1
    7047     6744     6745 1
    7048     6744     6787 1
    7049     6744     6788 1
    7050     6745     6746 1
    7051     6745     6789 1
    7052     6745     6790 1
    7053     6746     6747 1
    7054     6746     6791 1
    7055     6746     6792 1
    7056     6747     6748 1
    7057     6747     6793 1
    7058     6747     6794 1
    7059     6748     6795 1
    7060     6748     6796 1
    7061     6748     6797 1
    7062     6749     6750 1
    7063     6749     6798 1
    7064     6749     6799 1
    7065     6750     6751 1
    7066     6751     6752 1
    7067     6751     6800 1
    7068     6751     6801 1
    7069     6752     6753 1
    7070     6752     6759 1
    7071     6752     6802 1
    7072     6753     6754 1
    7073     6753     6803 1
    7074     6753     6804 1
    7075     6754     6755 1
    7076     6754     6805 1
    7077     6754     6806 1
    7078     6755     6756 1
    7079     6755     6807 1
    7080     6755     6808 1
    7081     6756     6757 1
    7082     6756     6809 1
    7083     6756     6810 1
    7084     6757     6758 1
    7085     6757     6811 1
    7086     6757     6812 1
    7087     6758     6813 1
    7088     6758     6814 1
    7089     6758     6815 1
    7090     6759     6760 1
    7091     6759     6816 1
    7092     6759     6817 1
    7093     6760     6761 1
    7094     6760     6818 1
    7095     6760     6819 1
    7096     6761     6762 1
    7097     6761     6820 1
    7098     6761     6821 1
    7099     6762     6763 1
    7100     6762     6822 1
    7101     6762     6823 1
    7102     6763     6764 1
    7103     6763     6824 1
    7104     6763     6825 1
    7105     6764     6765 1
    7106     6764     6826 1
    7107     6764     6827 1
    7108     6765     6766 1
    7109     6765     6828 1
    7110     6765     6829 1
    7111     6766     6830 1
    7112     6766     6831 1
    7113     6766     6832 1
    7114     6833     6834 1
    7115     6833     6840 1
    7116     6833     6872 1
    7117     6834     6835 1
    7118     6834     6838 1
    7119     6835     6836 1
    7120     6835     6839 1
    7121     6836     6837 1
    7122     6837     6838 1
    7123     6837     6848 1
    7124     6838     6844 1
    7125     6839     6840 1
    7126     6839     6843 1
    7127     6840     6841 1
    7128     6841     6842 1
    7129     6841     6845 1
    7130     6842     6843 1
    7131     6846     6847 1
    7132     6846     6854 1
    7133     6847     6848 1
    7134     6847     6855 1
    7135     6848     6849 1
    7136     6849     6850 1
    7137     6849     6853 1
    7138     6850     6851 1
    7139     6851     6852 1
    7140     6852     6853 1
    7141     6853     6854 1
    7142     6854     6964 1
    7143     6856     6857 1
    7144     6856     6889 1
    7145     6856     6890 1
    7146     6856     6891 1
    7147     6857     6858 1
    7148     6857     6892 1
    7149     6857     6893 1
    7150     6858     6859 1
    7151     6858     6894 1
    7152     6858     6895 1
    7153     6859     6860 1
    7154     6859     6896 1
    7155     6859     6897 1
    7156     6860     6861 1
    7157     6860     6898 1
    7158     6860     6899 1
    7159     6861     6862 1
    7160     6861     6900 1
    7161     6861     6901 1
    7162     6862     6863 1
    7163     6862     6902 1
    7164     6862     6903 1
    7165     6863     6864 1
    7166     6863     6904 1
    7167     6863     6905 1
    7168     6864     6865 1
    7169     6864     6871 1
    7170     6864     6906 1
    7171     6865     6866 1
    7172     6865     6907 1
    7173     6865     6908 1
    7174     6866     6867 1
    7175     6866     6909 1
    7176     6866     6910 1
    7177     6867     6868 1
    7178     6867     6911 1
    7179     6867     6912 1
    7180     6868     6869 1
    7181     6868     6913 1
    7182     6868     6914 1
    7183     6869     6870 1
    7184     6869     6915 1
    7185     6869     6916 1
    7186     6870     6917 1
    7187     6870     6918 1
    7188     6870     6919 1
    7189     6871     6872 1
    7190     6871     6920 1
    7191     6871     6921 1
    7192     6872     6873 1
    7193     6873     6874 1
    7194     6873     6922 1
    7195     6873     6923 1
    7196     6874     6875 1
    7197     6874     6881 1
    7198     6874     6924 1
    7199     6875     6876 1
    7200     6875     6925 1
    7201     6875     6926 1
    7202     6876     6877 1
    7203     6876     6927 1
    7204     6876     6928 1
    7205     6877     6878 1
    7206     6877     6929 1
    7207     6877     6930 1
    7208     6878     6879 1
    7209     6878     6931 1
    7210     6878     6932 1
    7211     6879     6880 1
    7212     6879     6933 1
    7213     6879     6934 1
    7214     6880     6935 1
    7215     6880     6936 1
    7216     6880     6937 1
    7217     6881     6882 1
    7218     6881     6938 1
    7219     6881     6939 1
    7220     6882     6883 1
    7221     6882     6940 1
    7222     6882     6941 1
    7223     6883     6884 1
    7224     6883     6942 1
    7225     6883     6943 1
    7226     6884     6885 1
    7227     6884     6944 1
    7228     6884     6945 1
    7229     6885     6886 1
    7230     6885     6946 1
    7231     6885     6947 1
    7232     6886     6887 1
    7233     6886     6948 1
    7234     6886     6949 1
    7235     6887     6888 1
    7236     6887     6950 1
    7237     6887     6951 1
    7238     6888     6952 1
    7239     6888     6953 1
    7240     6888     6954 1
    7241     6955     6956 1
    7242     6955     6962 1
    7243     6955     6994 1
    7244     6956     6957 1
    7245     6956     6960 1
    7246     6957     6958 1
    7247     6957     6961 1
    7248     6958     6959 1
    7249     6959     6960 1
    7250     6959     6970 1
    7251     6960     6966 1
    7252     6961     6962 1
    7253     6961     6965 1
    7254     6962     6963 1
    7255     6963     6964 1
    7256     6963     6967 1
    7257     6964     6965 1
    7258     6968     6969 1
    7259     6968     6976 1
    7260     6969     6970 1
    7261     6969     6977 1
    7262     6970     6971 1
    7263     6971     6972 1
    7264     6971     6975 1
    7265     6972     6973 1
    7266     6973     6974 1
    7267     6974     6975 1
    7268     6975     6976 1
    7269     6976     7086 1
    7270     6978     6979 1
    7271     6978     7011 1
    7272     6978     7012 1
    7273     6978     7013 1
    7274     6979     6980 1
    7275     6979     7014 1
    7276     6979     7015 1
    7277     6980     6981 1
    7278     6980     7016 1
    7279     6980     7017 1
    7280     6981     6982 1
    7281     6981     7018 1
    7282     6981     7019 1
    7283     6982     6983 1
    7284     6982     7020 1
    7285     6982     7021 1
    7286     6983     6984 1
    7287     6983     7022 1
    7288     6983     7023 1
    7289     6984     6985 1
    7290     6984     7024 1
    7291     6984     7025 1
    7292     6985     6986 1
    7293     6985     7026 1
    7294     6985     7027 1
    7295     6986     6987 1
    7296     6986     6993 1
    7297     6986     7028 1
    7298     6987     6988 1
    7299     6987     7029 1
    7300     6987     7030 1
    7301     6988     6989 1
    7302     6988     7031 1
    7303     6988     7032 1
    7304     6989     6990 1
    7305     6989     7033 1
    7306     6989     7034 1
    7307     6990     6991 1
    7308     6990     7035 1
    7309     6990     7036 1
    7310     6991     6992 1
    7311     6991     7037 1
    7312     6991     7038 1
    7313     6992     7039 1
    7314     6992     7040 1
    7315     6992     7041 1
    7316     6993     6994 1
    7317     6993     7042 1
    7318     6993     7043 1
    7319     6994     6995 1
    7320     6995     6996 1
    7321     6995     7044 1
    7322     6995     7045 1
    7323     6996     6997 1
    7324     6996     7003 1
    7325     6996     7046 1
    7326     6997     6998 1
    7327     6997     7047 1
    7328     6997     7048 1
    7329     6998     6999 1
    7330     6998     7049 1
    7331     6998     7050 1
    7332     6999     7000 1
    7333     6999     7051 1
    7334     6999     7052 1
    7335     7000     7001 1
    7336     7000     7053 1
    7337     7000     7054 1
    7338     7001     7002 1
    7339     7001     7055 1
    7340     7001     7056 1
    7341     7002     7057 1
    7342     7002     7058 1
    7343     7002     7059 1
    7344     7003     7004 1
    7345     7003     7060 1
    7346     7003     7061 1
    7347     7004     7005 1
    7348     7004     7062 1
    7349     7004     7063 1
    7350     7005     7006 1
    7351     7005     7064 1
    7352     7005     7065 1
    7353     7006     7007 1
    7354     7006     7066 1
    7355     7006     7067 1
    7356     7007     7008 1
    7357     7007     7068 1
    7358     7007     7069 1
    7359     7008     7009 1
    7360     7008     7070 1
    7361     7008     7071 1
    7362     7009     7010 1
    7363     7009     7072 1
    7364     7009     7073 1
    7365     7010     7074 1
    7366     7010     7075 1
    7367     7010     7076 1
    7368     7077     7078 1
    7369     7077     7084 1
    7370     7077     7116 1
    7371     7078     7079 1
    7372     7078     7082 1
    7373     7079     7080 1
    7374     7079     7083 1
    7375     7080     7081 1
    7376     7081     7082 1
    7377     7081     7092 1
    7378     7082     7088 1
    7379     7083     7084 1
    7380     7083     7087 1
    7381     7084     7085 1
    7382     7085     7086 1
    7383     7085     7089 1
    7384     7086     7087 1
    7385     7090     7091 1
    7386     7090     7098 1
    7387     7091     7092 1
    7388     7091     7099 1
    7389     7092     7093 1
    7390     7093     7094 1
    7391     7093     7097 1
    7392     7094     7095 1
    7393     7095     7096 1
    7394     7096     7097 1
    7395     7097     7098 1
    7396     7098     7208 1
    7397     7100     7101 1
    7398     7100     7133 1
    7399     7100     7134 1
    7400     7100     7135 1
    7401     7101     7102 1
    7402     7101     7136 1
    7403     7101     7137 1
    7404     7102     7103 1
    7405     7102     7138 1
    7406     7102     7139 1
    7407     7103     7104 1
    7408     7103     7140 1
    7409     7103     7141 1
    7410     7104     7105 1
    7411     7104     7142 1
    7412     7104     7143 1
    7413     7105     7106 1
    7414     7105     7144 1
    7415     7105     7145 1
    7416     7106     7107 1
    7417     7106     7146 1
    7418     7106     7147 1
    7419     7107     7108 1
    7420     7107     7148 1
    7421     7107     7149 1
    7422     7108     7109 1
    7423     7108     7115 1
    7424     7108     7150 1
    7425     7109     7110 1
    7426     7109     7151 1
    7427     7109     7152 1
    7428     7110     7111 1
    7429     7110     7153 1
    7430     7110     7154 1
    7431     7111     7112 1
    7432     7111     7155 1
    7433     7111     7156 1
    7434     7112     7113 1
    7435     7112     7157 1
    7436     7112     7158 1
    7437     7113     7114 1
    7438     7113     7159 1
    7439     7113     7160 1
    7440     7114     7161 1
    7441     7114     7162 1
    7442     7114     7163 1
    7443     7115     7116 1
    7444     7115     7164 1
    7445     7115     7165 1
    7446     7116     7117 1
    7447     7117     7118 1
    7448     7117     7166 1
    7449     7117     7167 1
    7450     7118     7119 1
    7451     7118     7125 1
    7452     7118     7168 1
    7453     7119     7120 1
    7454     7119     7169 1
    7455     7119     7170 1
    7456     7120     7121 1
    7457     7120     7171 1
    7458     7120     7172 1
    7459     7121     7122 1
    7460     7121     7173 1
    7461     7121     7174 1
    7462     7122     7123 1
    7463     7122     7175 1
    7464     7122     7176 1
    7465     7123     7124 1
    7466     7123     7177 1
    7467     7123     7178 1
    7468     7124     7179 1
    7469     7124     7180 1
    7470     7124     7181 1
    7471     7125     7126 1
    7472     7125     7182 1
    7473     7125     7183 1
    7474     7126     7127 1
    7475     7126     7184 1
    7476     7126     7185 1
    7477     7127     7128 1
    7478     7127     7186 1
    7479     7127     7187 1
    7480     7128     7129 1
    7481     7128     7188 1
    7482     7128     7189 1
    7483     7129     7130 1
    7484     7129     7190 1
    7485     7129     7191 1
    7486     7130     7131 1
    7487     7130     7192 1
    7488     7130     7193 1
    7489     7131     7132 1
    7490     7131     7194 1
    7491     7131     7195 1
    7492     7132     7196 1
    7493     7132     7197 1
    7494     7132     7198 1
    7495     7199     7200 1
    7496     7199     7206 1
    7497     7199     7238 1
    7498     7200     7201 1
    7499     7200     7204 1
    7500     7201     7202 1
    7501     7201     7205 1
    7502     7202     7203 1
    7503     7203     7204 1
    7504     7203     7214 1
    7505     7204     7210 1
    7506     7205     7206 1
    7507     7205     7209 1
    7508     7206     7207 1
    7509     7207     7208 1
    7510     7207     7211 1
    7511     7208     7209 1
    7512     7212     7213 1
    7513     7212     7220 1
    7514     7213     7214 1
    7515     7213     7221 1
    7516     7214     7215 1
    7517     7215     7216 1
    7518     7215     7219 1
    7519     7216     7217 1
    7520     7217     7218 1
    7521     7218     7219 1
    7522     7219     7220 1
    7523     7220     7330 1
    7524     7222     7223 1
    7525     7222     7255 1
    7526     7222     7256 1
    7527     7222     7257 1
    7528     7223     7224 1
    7529     7223     7258 1
    7530     7223     7259 1
    7531     7224     7225 1
    7532     7224     7260 1
    7533     7224     7261 1
    7534     7225     7226 1
    7535     7225     7262 1
    7536     7225     7263 1
    7537     7226     7227 1
    7538     7226     7264 1
    7539     7226     7265 1
    7540     7227     7228 1
    7541     7227     7266 1
    7542     7227     7267 1
    7543     7228     7229 1
    7544     7228     7268 1
    7545     7228     7269 1
    7546     7229     7230 1
    7547     7229     7270 1
    7548     7229     7271 1
    7549     7230     7231 1
    7550     7230     7237 1
    7551     7230     7272 1
    7552     7231     7232 1
    7553     7231     7273 1
    7554     7231     7274 1
    7555     7232     7233 1
    7556     7232     7275 1
    7557     7232     7276 1
    7558     7233     7234 1
    7559     7233     7277 1
    7560     7233     7278 1
    7561     7234     7235 1
    7562     7234     7279 1
    7563     7234     7280 1
    7564     7235     7236 1
    7565     7235     7281 1
    7566     7235     7282 1
    7567     7236     7283 1
    7568     7236     7284 1
    7569     7236     7285 1
    7570     7237     7238 1
    7571     7237     7286 1
    7572     7237     7287 1
    7573     7238     7239 1
    7574     7239     7240 1
    7575     7239     7288 1
    7576     7239     7289 1
    7577     7240     7241 1
    7578     7240     7247 1
    7579     7240     7290 1
    7580     7241     7242 1
    7581     7241     7291 1
    7582     7241     7292 1
    7583     7242     7243 1
    7584     7242     7293 1
    7585     7242     7294 1
    7586     7243     7244 1
    7587     7243     7295 1
    7588     7243     7296 1
    7589     7244     7245 1
    7590     7244     7297 1
    7591     7244     7298 1
    7592     7245     7246 1
    7593     7245     7299 1
    7594     7245     7300 1
    7595     7246     7301 1
    7596     7246     7302 1
    7597     7246     7303 1
    7598     7247     7248 1
    7599     7247     7304 1
    7600     7247     7305 1
    7601     7248     7249 1
    7602     7248     7306 1
    7603     7248     7307 1
    7604     7249     7250 1
    7605     7249     7308 1
    7606     7249     7309 1
    7607     7250     7251 1
    7608     7250     7310 1
    7609     7250     7311 1
    7610     7251     7252 1
    7611     7251     7312 1
    7612     7251     7313 1
    7613     7252     7253 1
    7614     7252     7314 1
    7615     7252     7315 1
    7616     7253     7254 1
    7617     7253     7316 1
    7618     7253     7317 1
    7619     7254     7318 1
    7620     7254     7319 1
    7621     7254     7320 1
    7622     7321     7322 1
    7623     7321     7328 1
    7624     7321     7360 1
    7625     7322     7323 1
    7626     7322     7326 1
    7627     7323     7324 1
    7628     7323     7327 1
    7629     7324     7325 1
    7630     7325     7326 1
    7631     7325     7336 1
    7632     7326     7332 1
    7633     7327     7328 1
    7634     7327     7331 1
    7635     7328     7329 1
    7636     7329     7330 1
    7637     7329     7333 1
    7638     7330     7331 1
    7639     7334     7335 1
    7640     7334     7342 1
    7641     7335     7336 1
    7642     7335     7343 1
    7643     7336     7337 1
    7644     7337     7338 1
    7645     7337     7341 1
    7646     7338     7339 1
    7647     7339     7340 1
    7648     7340     7341 1
    7649     7341     7342 1
    7650     7342     7452 1
    7651     7344     7345 1
    7652     7344     7377 1
    7653     7344     7378 1
    7654     7344     7379 1
    7655     7345     7346 1
    7656     7345     7380 1
    7657     7345     7381 1
    7658     7346     7347 1
    7659     7346     7382 1
    7660     7346     7383 1
    7661     7347     7348 1
    7662     7347     7384 1
    7663     7347     7385 1
    7664     7348     7349 1
    7665     7348     7386 1
    7666     7348     7387 1
    7667     7349     7350 1
    7668     7349     7388 1
    7669     7349     7389 1
    7670     7350     7351 1
    7671     7350     7390 1
    7672     7350     7391 1
    7673     7351     7352 1
    7674     7351     7392 1
    7675     7351     7393 1
    7676     7352     7353 1
    7677     7352     7359 1
    7678     7352     7394 1
    7679     7353     7354 1
    7680     7353     7395 1
    7681     7353     7396 1
    7682     7354     7355 1
    7683     7354     7397 1
    7684     7354     7398 1
    7685     7355     7356 1
    7686     7355     7399 1
    7687     7355     7400 1
    7688     7356     7357 1
    7689     7356     7401 1
    7690     7356     7402 1
    7691     7357     7358 1
    7692     7357     7403 1
    7693     7357     7404 1
    7694     7358     7405 1
    7695     7358     7406 1
    7696     7358     7407 1
    7697     7359     7360 1
    7698     7359     7408 1
    7699     7359     7409 1
    7700     7360     7361 1
    7701     7361     7362 1
    7702     7361     7410 1
    7703     7361     7411 1
    7704     7362     7363 1
    7705     7362     7369 1
    7706     7362     7412 1
    7707     7363     7364 1
    7708     7363     7413 1
    7709     7363     7414 1
    7710     7364     7365 1
    7711     7364     7415 1
    7712     7364     7416 1
    7713     7365     7366 1
    7714     7365     7417 1
    7715     7365     7418 1
    7716     7366     7367 1
    7717     7366     7419 1
    7718     7366     7420 1
    7719     7367     7368 1
    7720     7367     7421 1
    7721     7367     7422 1
    7722     7368     7423 1
    7723     7368     7424 1
    7724     7368     7425 1
    7725     7369     7370 1
    7726     7369     7426 1
    7727     7369     7427 1
    7728     7370     7371 1
    7729     7370     7428 1
    7730     7370     7429 1
    7731     7371     7372 1
    7732     7371     7430 1
    7733     7371     7431 1
    7734     7372     7373 1
    7735     7372     7432 1
    7736     7372     7433 1
    7737     7373     7374 1
    7738     7373     7434 1
    7739     7373     7435 1
    7740     7374     7375 1
    7741     7374     7436 1
    7742     7374     7437 1
    7743     7375     7376 1
    7744     7375     7438 1
    7745     7375     7439 1
    7746     7376     7440 1
    7747     7376     7441 1
    7748     7376     7442 1
    7749     7443     7444 1
    7750     7443     7450 1
    7751     7443     7482 1
    7752     7444     7445 1
    7753     7444     7448 1
    7754     7445     7446 1
    7755     7445     7449 1
    7756     7446     7447 1
    7757     7447     7448 1
    7758     7447     7458 1
    7759     7448     7454 1
    7760     7449     7450 1
    7761     7449     7453 1
    7762     7450     7451 1
    7763     7451     7452 1
    7764     7451     7455 1
    7765     7452     7453 1
    7766     7456     7457 1
    7767     7456     7464 1
    7768     7457     7458 1
    7769     7457     7465 1
    7770     7458     7459 1
    7771     7459     7460 1
    7772     7459     7463 1
    7773     7460     7461 1
    7774     7461     7462 1
    7775     7462     7463 1
    7776     7463     7464 1
    7777     7464     7574 1
    7778     7466     7467 1
    7779     7466     7499 1
    7780     7466     7500 1
    7781     7466     7501 1
    7782     7467     7468 1
    7783     7467     7502 1
    7784     7467     7503 1
    7785     7468     7469 1
    7786     7468     7504 1
    7787     7468     7505 1
    7788     7469     7470 1
    7789     7469     7506 1
    7790     7469     7507 1
    7791     7470     7471 1
    7792     7470     7508 1
    7793     7470     7509 1
    7794     7471     7472 1
    7795     7471     7510 1
    7796     7471     7511 1
    7797     7472     7473 1
    7798     7472     7512 1
    7799     7472     7513 1
    7800     7473     7474 1
    7801     7473     7514 1
    7802     7473     7515 1
    7803     7474     7475 1
    7804     7474     7481 1
    7805     7474     7516 1
    7806     7475     7476 1
    7807     7475     7517 1
    7808     7475     7518 1
    7809     7476     7477 1
    7810     7476     7519 1
    7811     7476     7520 1
    7812     7477     7478 1
    7813     7477     7521 1
    7814     7477     7522 1
    7815     7478     7479 1
    7816     7478     7523 1
    7817     7478     7524 1
    7818     7479     7480 1
    7819     7479     7525 1
    7820     7479     7526 1
    7821     7480     7527 1
    7822     7480     7528 1
    7823     7480     7529 1
    7824     7481     7482 1
    7825     7481     7530 1
    7826     7481     7531 1
    7827     7482     7483 1
    7828     7483     7484 1
    7829     7483     7532 1
    7830     7483     7533 1
    7831     7484     7485 1
    7832     7484     7491 1
    7833     7484     7534 1
    7834     7485     7486 1
    7835     7485     7535 1
    7836     7485     7536 1
    7837     7486     7487 1
    7838     7486     7537 1
    7839     7486     7538 1
    7840     7487     7488 1
    7841     7487     7539 1
    7842     7487     7540 1
    7843     7488     7489 1
    7844     7488     7541 1
    7845     7488     7542 1
    7846     7489     7490 1
    7847     7489     7543 1
    7848     7489     7544 1
    7849     7490     7545 1
    7850     7490     7546 1
    7851     7490     7547 1
    7852     7491     7492 1
    7853     7491     7548 1
    7854     7491     7549 1
    7855     7492     7493 1
    7856     7492     7550 1
    7857     7492     7551 1
    7858     7493     7494 1
    7859     7493     7552 1
    7860     7493     7553 1
    7861     7494     7495 1
    7862     7494     7554 1
    7863     7494     7555 1
    7864     7495     7496 1
    7865     7495     7556 1
    7866     7495     7557 1
    7867     7496     7497 1
    7868     7496     7558 1
    7869     7496     7559 1
    7870     7497     7498 1
    7871     7497     7560 1
    7872     7497     7561 1
    7873     7498     7562 1
    7874     7498     7563 1
    7875     7498     7564 1
    7876     7565     7566 1
    7877     7565     7572 1
    7878     7565     7604 1
    7879     7566     7567 1
    7880     7566     7570 1
    7881     7567     7568 1
    7882     7567     7571 1
    7883     7568     7569 1
    7884     7569     7570 1
    7885     7569     7580 1
    7886     7570     7576 1
    7887     7571     7572 1
    7888     7571     7575 1
    7889     7572     7573 1
    7890     7573     7574 1
    7891     7573     7577 1
    7892     7574     7575 1
    7893     7578     7579 1
    7894     7578     7586 1
    7895     7579     7580 1
    7896     7579     7587 1
    7897     7580     7581 1
    7898     7581     7582 1
    7899     7581     7585 1
    7900     7582     7583 1
    7901     7583     7584 1
    7902     7584     7585 1
    7903     7585     7586 1
    7904     7586     7696 1
    7905     7588     7589 1
    7906     7588     7621 1
    7907     7588     7622 1
    7908     7588     7623 1
    7909     7589     7590 1
    7910     7589     7624 1
    7911     7589     7625 1
    7912     7590     7591 1
    7913     7590     7626 1
    7914     7590     7627 1
    7915     7591     7592 1
    7916     7591     7628 1
    7917     7591     7629 1
    7918     7592     7593 1
    7919     7592     7630 1
    7920     7592     7631 1
    7921     7593     7594 1
    7922     7593     7632 1
    7923     7593     7633 1
    7924     7594     7595 1
    7925     7594     7634 1
    7926     7594     7635 1
    7927     7595     7596 1
    7928     7595     7636 1
    7929     7595     7637 1
    7930     7596     7597 1
    7931     7596     7603 1
    7932     7596     7638 1
    7933     7597     7598 1
    7934     7597     7639 1
    7935     7597     7640 1
    7936     7598     7599 1
    7937     7598     7641 1
    7938     7598     7642 1
    7939     7599     7600 1
    7940     7599     7643 1
    7941     7599     7644 1
    7942     7600     7601 1
    7943     7600     7645 1
    7944     7600     7646 1
    7945     7601     7602 1
    7946     7601     7647 1
    7947     7601     7648 1
    7948     7602     7649 1
    7949     7602     7650 1
    7950     7602     7651 1
    7951     7603     7604 1
    7952     7603     7652 1
    7953     7603     7653 1
    7954     7604     7605 1
    7955     7605     7606 1
    7956     7605     7654 1
    7957     7605     7655 1
    7958     7606     7607 1
    7959     7606     7613 1
    7960     7606     7656 1
    7961     7607     7608 1
    7962     7607     7657 1
    7963     7607     7658 1
    7964     7608     7609 1
    7965     7608     7659 1
    7966     7608     7660 1
    7967     7609     7610 1
    7968     7609     7661 1
    7969     7609     7662 1
    7970     7610     7611 1
    7971     7610     7663 1
    7972     7610     7664 1
    7973     7611     7612 1
    7974     7611     7665 1
    7975     7611     7666 1
    7976     7612     7667 1
    7977     7612     7668 1
    7978     7612     7669 1
    7979     7613     7614 1
    7980     7613     7670 1
    7981     7613     7671 1
    7982     7614     7615 1
    7983     7614     7672 1
    7984     7614     7673 1
    7985     7615     7616 1
    7986     7615     7674 1
    7987     7615     7675 1
    7988     7616     7617 1
    7989     7616     7676 1
    7990     7616     7677 1
    7991     7617     7618 1
    7992     7617     7678 1
    7993     7617     7679 1
    7994     7618     7619 1
    7995     7618     7680 1
    7996     7618     7681 1
    7997     7619     7620 1
    7998     7619     7682 1
    7999     7619     7683 1
    8000     7620     7684 1
    8001     7620     7685 1
    8002     7620     7686 1
    8003     7687     7688 1
    8004     7687     7694 1
    8005     7687     7726 1
    8006     7688     7689 1
    8007     7688     7692 1
    8008     7689     7690 1
    8009     7689     7693 1
    8010     7690     7691 1
    8011     7691     7692 1
    8012     7691     7702 1
    8013     7692     7698 1
    8014     7693     7694 1
    8015     7693     7697 1
    8016     7694     7695 1
    8017     7695     7696 1
    8018     7695     7699 1
    8019     7696     7697 1
    8020     7700     7701 1
    8021     7700     7708 1
    8022     7701     7702 1
    8023     7701     7709 1
    8024     7702     7703 1
    8025     7703     7704 1
    8026     7703     7707 1
    8027     7704     7705 1
    8028     7705     7706 1
    8029     7706     7707 1
    8030     7707     7708 1
    8031     7708     7818 1
    8032     7710     7711 1
    8033     7710     7743 1
    8034     7710     7744 1
    8035     7710     7745 1
    8036     7711     7712 1
    8037     7711     7746 1
    8038     7711     7747 1
    8039     7712     7713 1
    8040     7712     7748 1
    8041     7712     7749 1
    8042     7713     7714 1
    8043     7713     7750 1
    8044     7713     7751 1
    8045     7714     7715 1
    8046     7714     7752 1
    8047     7714     7753 1
    8048     7715     7716 1
    8049     7715     7754 1
    8050     7715     7755 1
    8051     7716     7717 1
    8052     7716     7756 1
    8053     7716     7757 1
    8054     7717     7718 1
    8055     7717     7758 1
    8056     7717     7759 1
    8057     7718     7719 1
    8058     7718     7725 1
    8059     7718     7760 1
    8060     7719     7720 1
    8061     7719     7761 1
    8062     7719     7762 1
    8063     7720     7721 1
    8064     7720     7763 1
    8065     7720     7764 1
    8066     7721     7722 1
    8067     7721     7765 1
    8068     7721     7766 1
    8069     7722     7723 1
    8070     7722     7767 1
    8071     7722     7768 1
    8072     7723     7724 1
    8073     7723     7769 1
    8074     7723     7770 1
    8075     7724     7771 1
    8076     7724     7772 1
    8077     7724     7773 1
    8078     7725     7726 1
    8079     7725     7774 1
    8080     7725     7775 1
    8081     7726     7727 1
    8082     7727     7728 1
    8083     7727     7776 1
    8084     7727     7777 1
    8085     7728     7729 1
    8086     7728     7735 1
    8087     7728     7778 1
    8088     7729     7730 1
    8089     7729     7779 1
    8090     7729     7780 1
    8091     7730     7731 1
    8092     7730     7781 1
    8093     7730     7782 1
    8094     7731     7732 1
    8095     7731     7783 1
    8096     7731     7784 1
    8097     7732     7733 1
    8098     7732     7785 1
    8099     7732     7786 1
    8100     7733     7734 1
    8101     7733     7787 1
    8102     7733     7788 1
    8103     7734     7789 1
    8104     7734     7790 1
    8105     7734     7791 1
    8106     7735     7736 1
    8107     7735     7792 1
    8108     7735     7793 1
    8109     7736     7737 1
    8110     7736     7794 1
    8111     7736     7795 1
    8112     7737     7738 1
    8113     7737     7796 1
    8114     7737     7797 1
    8115     7738     7739 1
    8116     7738     7798 1
    8117     7738     7799 1
    8118     7739     7740 1
    8119     7739     7800 1
    8120     7739     7801 1
    8121     7740     7741 1
    8122     7740     7802 1
    8123     7740     7803 1
    8124     7741     7742 1
    8125     7741     7804 1
    8126     7741     7805 1
    8127     7742     7806 1
    8128     7742     7807 1
    8129     7742     7808 1
    8130     7809     7810 1
    8131     7809     7816 1
    8132     7809     7848 1
    8133     7810     7811 1
    8134     7810     7814 1
    8135     7811     7812 1
    8136     7811     7815 1
    8137     7812     7813 1
    8138     7813     7814 1
    8139     7813     7824 1
    8140     7814     7820 1
    8141     7815     7816 1
    8142     7815     7819 1
    8143     7816     7817 1
    8144     7817     7818 1
    8145     7817     7821 1
    8146     7818     7819 1
    8147     7822     7823 1
    8148     7822     7830 1
    8149     7823     7824 1
    8150     7823     7831 1
    8151     7824     7825 1
    8152     7825     7826 1
    8153     7825     7829 1
    8154     7826     7827 1
    8155     7827     7828 1
    8156     7828     7829 1
    8157     7829     7830 1
    8158     7830     7940 1
    8159     7832     7833 1
    8160     7832     7865 1
    8161     7832     7866 1
    8162     7832     7867 1
    8163     7833     7834 1
    8164     7833     7868 1
    8165     7833     7869 1
    8166     7834     7835 1
    8167     7834     7870 1
    8168     7834     7871 1
    8169     7835     7836 1
    8170     7835     7872 1
    8171     7835     7873 1
    8172     7836     7837 1
    8173     7836     7874 1
    8174     7836     7875 1
    8175     7837     7838 1
    8176     7837     7876 1
    8177     7837     7877 1
    8178     7838     7839 1
    8179     7838     7878 1
    8180     7838     7879 1
    8181     7839     7840 1
    8182     7839     7880 1
    8183     7839     7881 1
    8184     7840     7841 1
    8185     7840     7847 1
    8186     7840     7882 1
    8187     7841     7842 1
    8188     7841     7883 1
    8189     7841     7884 1
    8190     7842     7843 1
    8191     7842     7885 1
    8192     7842     7886 1
    8193     7843     7844 1
    8194     7843     7887 1
    8195     7843     7888 1
    8196     7844     7845 1
    8197     7844     7889 1
    8198     7844     7890 1
    8199     7845     7846 1
    8200     7845     7891 1
    8201     7845     7892 1
    8202     7846     7893 1
    8203     7846     7894 1
    8204     7846     7895 1
    8205     7847     7848 1
    8206     7847     7896 1
    8207     7847     7897 1
    8208     7848     7849 1
    8209     7849     7850 1
    8210     7849     7898 1
    8211     7849     7899 1
    8212     7850     7851 1
    8213     7850     7857 1
    8214     7850     7900 1
    8215     7851     7852 1
    8216     7851     7901 1
    8217     7851     7902 1
    8218     7852     7853 1
    8219     7852     7903 1
    8220     7852     7904 1
    8221     7853     7854 1
    8222     7853     7905 1
    8223     7853     7906 1
    8224     7854     7855 1
    8225     7854     7907 1
    8226     7854     7908 1
    8227     7855     7856 1
    8228     7855     7909 1
    8229     7855     7910 1
    8230     7856     7911 1
    8231     7856     7912 1
    8232     7856     7913 1
    8233     7857     7858 1
    8234     7857     7914 1
    8235     7857     7915 1
    8236     7858     7859 1
    8237     7858     7916 1
    8238     7858     7917 1
    8239     7859     7860 1
    8240     7859     7918 1
    8241     7859     7919 1
    8242     7860     7861 1
    8243     7860     7920 1
    8244     7860     7921 1
    8245     7861     7862 1
    8246     7861     7922 1
    8247     7861     7923 1
    8248     7862     7863 1
    8249     7862     7924 1
    8250     7862     7925 1
    8251     7863     7864 1
    8252     7863     7926 1
    8253     7863     7927 1
    8254     7864     7928 1
    8255     7864     7929 1
    8256     7864     7930 1
    8257     7931     7932 1
    8258     7931     7938 1
    8259     7931     7970 1
    8260     7932     7933 1
    8261     7932     7936 1
    8262     7933     7934 1
    8263     7933     7937 1
    8264     7934     7935 1
    8265     7935     7936 1
    8266     7935     7946 1
    8267     7936     7942 1
    8268     7937     7938 1
    8269     7937     7941 1
    8270     7938     7939 1
    8271     7939     7940 1
    8272     7939     7943 1
    8273     7940     7941 1
    8274     7944     7945 1
    8275     7944     7952 1
    8276     7945     7946 1
    8277     7945     7953 1
    8278     7946     7947 1
    8279     7947     7948 1
    8280     7947     7951 1
    8281     7948     7949 1
    8282     7949     7950 1
    8283     7950     7951 1
    8284     7951     7952 1
    8285     7952     8062 1
    8286     7954     7955 1
    8287     7954     7987 1
    8288     7954     7988 1
    8289     7954     7989 1
    8290     7955     7956 1
    8291     7955     7990 1
    8292     7955     7991 1
    8293     7956     7957 1
    8294     7956     7992 1
    8295     7956     7993 1
    8296     7957     7958 1
    8297     7957     7994 1
    8298     7957     7995 1
    8299     7958     7959 1
    8300     7958     7996 1
    8301     7958     7997 1
    8302     7959     7960 1
    8303     7959     7998 1
    8304     7959     7999 1
    8305     7960     7961 1
    8306     7960     8000 1
    8307     7960     8001 1
    8308     7961     7962 1
    8309     7961     8002 1
    8310     7961     8003 1
    8311     7962     7963 1
    8312     7962     7969 1
    8313     7962     8004 1
    8314     7963     7964 1
    8315     7963     8005 1
    8316     7963     8006 1
    8317     7964     7965 1
    8318     7964     8007 1
    8319     7964     8008 1
    8320     7965     7966 1
    8321     7965     8009 1
    8322     7965     8010 1
    8323     7966     7967 1
    8324     7966     8011 1
    8325     7966     8012 1
    8326     7967     7968 1
    8327     7967     8013 1
    8328     7967     8014 1
    8329     7968     8015 1
    8330     7968     8016 1
    8331     7968     8017 1
    8332     7969     7970 1
    8333     7969     8018 1
    8334     7969     8019 1
    8335     7970     7971 1
    8336     7971     7972 1
    8337     7971     8020 1
    8338     7971     8021 1
    8339     7972     7973 1
    8340     7972     7979 1
    8341     7972     8022 1
    8342     7973     7974 1
    8343     7973     8023 1
    8344     7973     8024 1
    8345     7974     7975 1
    8346     7974     8025 1
    8347     7974     8026 1
    8348     7975     7976 1
    8349     7975     8027 1
    8350     7975     8028 1
    8351     7976     7977 1
    8352     7976     8029 1
    8353     7976     8030 1
    8354     7977     7978 1
    8355     7977     8031 1
    8356     7977     8032 1
    8357     7978     8033 1
    8358     7978     8034 1
    8359     7978     8035 1
    8360     7979     7980 1
    8361     7979     8036 1
    8362     7979     8037 1
    8363     7980     7981 1
    8364     7980     8038 1
    8365     7980     8039 1
    8366     7981     7982 1
    8367     7981     8040 1
    8368     7981     8041 1
    8369     7982     7983 1
    8370     7982     8042 1
    8371     7982     8043 1
    8372     7983     7984 1
    8373     7983     8044 1
    8374     7983     8045 1
    8375     7984     7985 1
    8376     7984     8046 1
    8377     7984     8047 1
    8378     7985     7986 1
    8379     7985     8048 1
    8380     7985     8049 1
    8381     7986     8050 1
    8382     7986     8051 1
    8383     7986     8052 1
    8384     8053     8054 1
    8385     8053     8060 1
    8386     8053     8092 1
    8387     8054     8055 1
    8388     8054     8058 1
    8389     8055     8056 1
    8390     8055     8059 1
    8391     8056     8057 1
    8392     8057     8058 1
    8393     8057     8068 1
    8394     8058     8064 1
    8395     8059     8060 1
    8396     8059     8063 1
    8397     8060     8061 1
    8398     8061     8062 1
    8399     8061     8065 1
    8400     8062     8063 1
    8401     8066     8067 1
    8402     8066     8074 1
    8403     8067     8068 1
    8404     8067     8075 1
    8405     8068     8069 1
    8406     8069     8070 1
    8407     8069     8073 1
    8408     8070     8071 1
    8409     8071     8072 1
    8410     8072     8073 1
    8411     8073     8074 1
    8412     8074     8184 1
    8413     8076     8077 1
    8414     8076     8109 1
    8415     8076     8110 1
    8416     8076     8111 1
    8417     8077     8078 1
    8418     8077     8112 1
    8419     8077     8113 1
    8420     8078     8079 1
    8421     8078     8114 1
    8422     8078     8115 1
    8423     8079     8080 1
    8424     8079     8116 1
    8425     8079     8117 1
    8426     8080     8081 1
    8427     8080     8118 1
    8428     8080     8119 1
    8429     8081     8082 1
    8430     8081     8120 1
    8431     8081     8121 1
    8432     8082     8083 1
    8433     8082     8122 1
    8434     8082     8123 1
    8435     8083     8084 1
    8436     8083     8124 1
    8437     8083     8125 1
    8438     8084     8085 1
    8439     8084     8091 1
    8440     8084     8126 1
    8441     8085     8086 1
    8442     8085     8127 1
    8443     8085     8128 1
    8444     8086     8087 1
    8445     8086     8129 1
    8446     8086     8130 1
    8447     8087     8088 1
    8448     8087     8131 1
    8449     8087     8132 1
    8450     8088     8089 1
    8451     8088     8133 1
    8452     8088     8134 1
    8453     8089     8090 1
    8454     8089     8135 1
    8455     8089     8136 1
    8456     8090     8137 1
    8457     8090     8138 1
    8458     8090     8139 1
    8459     8091     8092 1
    8460     8091     8140 1
    8461     8091     8141 1
    8462     8092     8093 1
    8463     8093     8094 1
    8464     8093     8142 1
    8465     8093     8143 1
    8466     8094     8095 1
    8467     8094     8101 1
    8468     8094     8144 1
    8469     8095     8096 1
    8470     8095     8145 1
    8471     8095     8146 1
    8472     8096     8097 1
    8473     8096     8147 1
    8474     8096     8148 1
    8475     8097     8098 1
    8476     8097     8149 1
    8477     8097     8150 1
    8478     8098     8099 1
    8479     8098     8151 1
    8480     8098     8152 1
    8481     8099     8100 1
    8482     8099     8153 1
    8483     8099     8154 1
    8484     8100     8155 1
    8485     8100     8156 1
    8486     8100     8157 1
    8487     8101     8102 1
    8488     8101     8158 1
    8489     8101     8159 1
    8490     8102     8103 1
    8491     8102     8160 1
    8492     8102     8161 1
    8493     8103     8104 1
    8494     8103     8162 1
    8495     8103     8163 1
    8496     8104     8105 1
    8497     8104     8164 1
    8498     8104     8165 1
    8499     8105     8106 1
    8500     8105     8166 1
    8501     8105     8167 1
    8502     8106     8107 1
    8503     8106     8168 1
    8504     8106     8169 1
    8505     8107     8108 1
    8506     8107     8170 1
    8507     8107     8171 1
    8508     8108     8172 1
    8509     8108     8173 1
    8510     8108     8174 1
    8511     8175     8176 1
    8512     8175     8182 1
    8513     8175     8214 1
    8514     8176     8177 1
    8515     8176     8180 1
    8516     8177     8178 1
    8517     8177     8181 1
    8518     8178     8179 1
    8519     8179     8180 1
    8520     8179     8190 1
    8521     8180     8186 1
    8522     8181     8182 1
    8523     8181     8185 1
    8524     8182     8183 1
    8525     8183     8184 1
    8526     8183     8187 1
    8527     8184     8185 1
    8528     8188     8189 1
    8529     8188     8196 1
    8530     8189     8190 1
    8531     8189     8197 1
    8532     8190     8191 1
    8533     8191     8192 1
    8534     8191     8195 1
    8535     8192     8193 1
    8536     8193     8194 1
    8537     8194     8195 1
    8538     8195     8196 1
    8539     8196     8306 1
    8540     8198     8199 1
    8541     8198     8231 1
    8542     8198     8232 1
    8543     8198     8233 1
    8544     8199     8200 1
    8545     8199     8234 1
    8546     8199     8235 1
    8547     8200     8201 1
    8548     8200     8236 1
    8549     8200     8237 1
    8550     8201     8202 1
    8551     8201     8238 1
    8552     8201     8239 1
    8553     8202     8203 1
    8554     8202     8240 1
    8555     8202     8241 1
    8556     8203     8204 1
    8557     8203     8242 1
    8558     8203     8243 1
    8559     8204     8205 1
    8560     8204     8244 1
    8561     8204     8245 1
    8562     8205     8206 1
    8563     8205     8246 1
    8564     8205     8247 1
    8565     8206     8207 1
    8566     8206     8213 1
    8567     8206     8248 1
    8568     8207     8208 1
    8569     8207     8249 1
    8570     8207     8250 1
    8571     8208     8209 1
    8572     8208     8251 1
    8573     8208     8252 1
    8574     8209     8210 1
    8575     8209     8253 1
    8576     8209     8254 1
    8577     8210     8211 1
    8578     8210     8255 1
    8579     8210     8256 1
    8580     8211     8212 1
    8581     8211     8257 1
    8582     8211     8258 1
    8583     8212     8259 1
    8584     8212     8260 1
    8585     8212     8261 1
    8586     8213     8214 1
    8587     8213     8262 1
    8588     8213     8263 1
    8589     8214     8215 1
    8590     8215     8216 1
    8591     8215     8264 1
    8592     8215     8265 1
    8593     8216     8217 1
    8594     8216     8223 1
    8595     8216     8266 1
    8596     8217     8218 1
    8597     8217     8267 1
    8598     8217     8268 1
    8599     8218     8219 1
    8600     8218     8269 1
    8601     8218     8270 1
    8602     8219     8220 1
    8603     8219     8271 1
    8604     8219     8272 1
    8605     8220     8221 1
    8606     8220     8273 1
    8607     8220     8274 1
    8608     8221     8222 1
    8609     8221     8275 1
    8610     8221     8276 1
    8611     8222     8277 1
    8612     8222     8278 1
    8613     8222     8279 1
    8614     8223     8224 1
    8615     8223     8280 1
    8616     8223     8281 1
    8617     8224     8225 1
    8618     8224     8282 1
    8619     8224     8283 1
    8620     8225     8226 1
    8621     8225     8284 1
    8622     8225     8285 1
    8623     8226     8227 1
    8624     8226     8286 1
    8625     8226     8287 1
    8626     8227     8228 1
    8627     8227     8288 1
    8628     8227     8289 1
    8629     8228     8229 1
    8630     8228     8290 1
    8631     8228     8291 1
    8632     8229     8230 1
    8633     8229     8292 1
    8634     8229     8293 1
    8635     8230     8294 1
    8636     8230     8295 1
    8637     8230     8296 1
    8638     8297     8298 1
    8639     8297     8304 1
    8640     8297     8336 1
    8641     8298     8299 1
    8642     8298     8302 1
    8643     8299     8300 1
    8644     8299     8303 1
    8645     8300     8301 1
    8646     8301     8302 1
    8647     8301     8312 1
    8648     8302     8308 1
    8649     8303     8304 1
    8650     8303     8307 1
    8651     8304     8305 1
    8652     8305     8306 1
    8653     8305     8309 1
    8654     8306     8307 1
    8655     8310     8311 1
    8656     8310     8318 1
    8657     8311     8312 1
    8658     8311     8319 1
    8659     8312     8313 1
    8660     8313     8314 1
    8661     8313     8317 1
    8662     8314     8315 1
    8663     8315     8316 1
    8664     8316     8317 1
    8665     8317     8318 1
    8666     8318     8428 1
    8667     8320     8321 1
    8668     8320     8353 1
    8669     8320     8354 1
    8670     8320     8355 1
    8671     8321     8322 1
    8672     8321     8356 1
    8673     8321     8357 1
    8674     8322     8323 1
    8675     8322     8358 1
    8676     8322     8359 1
    8677     8323     8324 1
    8678     8323     8360 1
    8679     8323     8361 1
    8680     8324     8325 1
    8681     8324     8362 1
    8682     8324     8363 1
    8683     8325     8326 1
    8684     8325     8364 1
    8685     8325     8365 1
    8686     8326     8327 1
    8687     8326     8366 1
    8688     8326     8367 1
    8689     8327     8328 1
    8690     8327     8368 1
    8691     8327     8369 1
    8692     8328     8329 1
    8693     8328     8335 1
    8694     8328     8370 1
    8695     8329     8330 1
    8696     8329     8371 1
    8697     8329     8372 1
    8698     8330     8331 1
    8699     8330     8373 1
    8700     8330     8374 1
    8701     8331     8332 1
    8702     8331     8375 1
    8703     8331     8376 1
    8704     8332     8333 1
    8705     8332     8377 1
    8706     8332     8378 1
    8707     8333     8334 1
    8708     8333     8379 1
    8709     8333     8380 1
    8710     8334     8381 1
    8711     8334     8382 1
    8712     8334     8383 1
    8713     8335     8336 1
    8714     8335     8384 1
    8715     8335     8385 1
    8716     8336     8337 1
    8717     8337     8338 1
    8718     8337     8386 1
    8719     8337     8387 1
    8720     8338     8339 1
    8721     8338     8345 1
    8722     8338     8388 1
    8723     8339     8340 1
    8724     8339     8389 1
    8725     8339     8390 1
    8726     8340     8341 1
    8727     8340     8391 1
    8728     8340     8392 1
    8729     8341     8342 1
    8730     8341     8393 1
    8731     8341     8394 1
    8732     8342     8343 1
    8733     8342     8395 1
    8734     8342     8396 1
    8735     8343     8344 1
    8736     8343     8397 1
    8737     8343     8398 1
    8738     8344     8399 1
    8739     8344     8400 1
    8740     8344     8401 1
    8741     8345     8346 1
    8742     8345     8402 1
    8743     8345     8403 1
    8744     8346     8347 1
    8745     8346     8404 1
    8746     8346     8405 1
    8747     8347     8348 1
    8748     8347     8406 1
    8749     8347     8407 1
    8750     8348     8349 1
    8751     8348     8408 1
    8752     8348     8409 1
    8753     8349     8350 1
    8754     8349     8410 1
    8755     8349     8411 1
    8756     8350     8351 1
    8757     8350     8412 1
    8758     8350     8413 1
    8759     8351     8352 1
    8760     8351     8414 1
    8761     8351     8415 1
    8762     8352     8416 1
    8763     8352     8417 1
    8764     8352     8418 1
    8765     8419     8420 1
    8766     8419     8426 1
    8767     8419     8458 1
    8768     8420     8421 1
    8769     8420     8424 1
    8770     8421     8422 1
    8771     8421     8425 1
    8772     8422     8423 1
    8773     8423     8424 1
    8774     8423     8434 1
    8775     8424     8430 1
    8776     8425     8426 1
    8777     8425     8429 1
    8778     8426     8427 1
    8779     8427     8428 1
    8780     8427     8431 1
    8781     8428     8429 1
    8782     8432     8433 1
    8783     8432     8440 1
    8784     8433     8434 1
    8785     8433     8441 1
    8786     8434     8435 1
    8787     8435     8436 1
    8788     8435     8439 1
    8789     8436     8437 1
    8790     8437     8438 1
    8791     8438     8439 1
    8792     8439     8440 1
    8793     8440     8550 1
    8794     8442     8443 1
    8795     8442     8475 1
    8796     8442     8476 1
    8797     8442     8477 1
    8798     8443     8444 1
    8799     8443     8478 1
    8800     8443     8479 1
    8801     8444     8445 1
    8802     8444     8480 1
    8803     8444     8481 1
    8804     8445     8446 1
    8805     8445     8482 1
    8806     8445     8483 1
    8807     8446     8447 1
    8808     8446     8484 1
    8809     8446     8485 1
    8810     8447     8448 1
    8811     8447     8486 1
    8812     8447     8487 1
    8813     8448     8449 1
    8814     8448     8488 1
    8815     8448     8489 1
    8816     8449     8450 1
    8817     8449     8490 1
    8818     8449     8491 1
    8819     8450     8451 1
    8820     8450     8457 1
    8821     8450     8492 1
    8822     8451     8452 1
    8823     8451     8493 1
    8824     8451     8494 1
    8825     8452     8453 1
    8826     8452     8495 1
    8827     8452     8496 1
    8828     8453     8454 1
    8829     8453     8497 1
    8830     8453     8498 1
    8831     8454     8455 1
    8832     8454     8499 1
    8833     8454     8500 1
    8834     8455     8456 1
    8835     8455     8501 1
    8836     8455     8502 1
    8837     8456     8503 1
    8838     8456     8504 1
    8839     8456     8505 1
    8840     8457     8458 1
    8841     8457     8506 1
    8842     8457     8507 1
    8843     8458     8459 1
    8844     8459     8460 1
    8845     8459     8508 1
    8846     8459     8509 1
    8847     8460     8461 1
    8848     8460     8467 1
    8849     8460     8510 1
    8850     8461     8462 1
    8851     8461     8511 1
    8852     8461     8512 1
    8853     8462     8463 1
    8854     8462     8513 1
    8855     8462     8514 1
    8856     8463     8464 1
    8857     8463     8515 1
    8858     8463     8516 1
    8859     8464     8465 1
    8860     8464     8517 1
    8861     8464     8518 1
    8862     8465     8466 1
    8863     8465     8519 1
    8864     8465     8520 1
    8865     8466     8521 1
    8866     8466     8522 1
    8867     8466     8523 1
    8868     8467     8468 1
    8869     8467     8524 1
    8870     8467     8525 1
    8871     8468     8469 1
    8872     8468     8526 1
    8873     8468     8527 1
    8874     8469     8470 1
    8875     8469     8528 1
    8876     8469     8529 1
    8877     8470     8471 1
    8878     8470     8530 1
    8879     8470     8531 1
    8880     8471     8472 1
    8881     8471     8532 1
    8882     8471     8533 1
    8883     8472     8473 1
    8884     8472     8534 1
    8885     8472     8535 1
    8886     8473     8474 1
    8887     8473     8536 1
    8888     8473     8537 1
    8889     8474     8538 1
    8890     8474     8539 1
    8891     8474     8540 1
    8892     8541     8542 1
    8893     8541     8548 1
    8894     8541     8580 1
    8895     8542     8543 1
    8896     8542     8546 1
    8897     8543     8544 1
    8898     8543     8547 1
    8899     8544     8545 1
    8900     8545     8546 1
    8901     8545     8556 1
    8902     8546     8552 1
    8903     8547     8548 1
    8904     8547     8551 1
    8905     8548     8549 1
    8906     8549     8550 1
    8907     8549     8553 1
    8908     8550     8551 1
    8909     8554     8555 1
    8910     8554     8562 1
    8911     8555     8556 1
    8912     8555     8563 1
    8913     8556     8557 1
    8914     8557     8558 1
    8915     8557     8561 1
    8916     8558     8559 1
    8917     8559     8560 1
    8918     8560     8561 1
    8919     8561     8562 1
    8920     8562     8672 1
    8921     8564     8565 1
    8922     8564     8597 1
    8923     8564     8598 1
    8924     8564     8599 1
    8925     8565     8566 1
    8926     8565     8600 1
    8927     8565     8601 1
    8928     8566     8567 1
    8929     8566     8602 1
    8930     8566     8603 1
    8931     8567     8568 1
    8932     8567     8604 1
    8933     8567     8605 1
    8934     8568     8569 1
    8935     8568     8606 1
    8936     8568     8607 1
    8937     8569     8570 1
    8938     8569     8608 1
    8939     8569     8609 1
    8940     8570     8571 1
    8941     8570     8610 1
    8942     8570     8611 1
    8943     8571     8572 1
    8944     8571     8612 1
    8945     8571     8613 1
    8946     8572     8573 1
    8947     8572     8579 1
    8948     8572     8614 1
    8949     8573     8574 1
    8950     8573     8615 1
    8951     8573     8616 1
    8952     8574     8575 1
    8953     8574     8617 1
    8954     8574     8618 1
    8955     8575     8576 1
    8956     8575     8619 1
    8957     8575     8620 1
    8958     8576     8577 1
    8959     8576     8621 1
    8960     8576     8622 1
    8961     8577     8578 1
    8962     8577     8623 1
    8963     8577     8624 1
    8964     8578     8625 1
    8965     8578     8626 1
    8966     8578     8627 1
    8967     8579     8580 1
    8968     8579     8628 1
    8969     8579     8629 1
    8970     8580     8581 1
    8971     8581     8582 1
    8972     8581     8630 1
    8973     8581     8631 1
    8974     8582     8583 1
    8975     8582     8589 1
    8976     8582     8632 1
    8977     8583     8584 1
    8978     8583     8633 1
    8979     8583     8634 1
    8980     8584     8585 1
    8981     8584     8635 1
    8982     8584     8636 1
    8983     8585     8586 1
    8984     8585     8637 1
    8985     8585     8638 1
    8986     8586     8587 1
    8987     8586     8639 1
    8988     8586     8640 1
    8989     8587     8588 1
    8990     8587     8641 1
    8991     8587     8642 1
    8992     8588     8643 1
    8993     8588     8644 1
    8994     8588     8645 1
    8995     8589     8590 1
    8996     8589     8646 1
    8997     8589     8647 1
    8998     8590     8591 1
    8999     8590     8648 1
    9000     8590     8649 1
    9001     8591     8592 1
    9002     8591     8650 1
    9003     8591     8651 1
    9004     8592     8593 1
    9005     8592     8652 1
    9006     8592     8653 1
    9007     8593     8594 1
    9008     8593     8654 1
    9009     8593     8655 1
    9010     8594     8595 1
    9011     8594     8656 1
    9012     8594     8657 1
    9013     8595     8596 1
    9014     8595     8658 1
    9015     8595     8659 1
    9016     8596     8660 1
    9017     8596     8661 1
    9018     8596     8662 1
    9019     8663     8664 1
    9020     8663     8670 1
    9021     8663     8702 1
    9022     8664     8665 1
    9023     8664     8668 1
    9024     8665     8666 1
    9025     8665     8669 1
    9026     8666     8667 1
    9027     8667     8668 1
    9028     8667     8678 1
    9029     8668     8674 1
    9030     8669     8670 1
    9031     8669     8673 1
    9032     8670     8671 1
    9033     8671     8672 1
    9034     8671     8675 1
    9035     8672     8673 1
    9036     8676     8677 1
    9037     8676     8684 1
    9038     8677     8678 1
    9039     8677     8685 1
    9040     8678     8679 1
    9041     8679     8680 1
    9042     8679     8683 1
    9043     8680     8681 1
    9044     8681     8682 1
    9045     8682     8683 1
    9046     8683     8684 1
    9047     8684     8794 1
    9048     8686     8687 1
    9049     8686     8719 1
    9050     8686     8720 1
    9051     8686     8721 1
    9052     8687     8688 1
    9053     8687     8722 1
    9054     8687     8723 1
    9055     8688     8689 1
    9056     8688     8724 1
    9057     8688     8725 1
    9058     8689     8690 1
    9059     8689     8726 1
    9060     8689     8727 1
    9061     8690     8691 1
    9062     8690     8728 1
    9063     8690     8729 1
    9064     8691     8692 1
    9065     8691     8730 1
    9066     8691     8731 1
    9067     8692     8693 1
    9068     8692     8732 1
    9069     8692     8733 1
    9070     8693     8694 1
    9071     8693     8734 1
    9072     8693     8735 1
    9073     8694     8695 1
    9074     8694     8701 1
    9075     8694     8736 1
    9076     8695     8696 1
    9077     8695     8737 1
    9078     8695     8738 1
    9079     8696     8697 1
    9080     8696     8739 1
    9081     8696     8740 1
    9082     8697     8698 1
    9083     8697     8741 1
    9084     8697     8742 1
    9085     8698     8699 1
    9086     8698     8743 1
    9087     8698     8744 1
    9088     8699     8700 1
    9089     8699     8745 1
    9090     8699     8746 1
    9091     8700     8747 1
    9092     8700     8748 1
    9093     8700     8749 1
    9094     8701     8702 1
    9095     8701     8750 1
    9096     8701     8751 1
    9097     8702     8703 1
    9098     8703     8704 1
    9099     8703     8752 1
    9100     8703     8753 1
    9101     8704     8705 1
    9102     8704     8711 1
    9103     8704     8754 1
    9104     8705     8706 1
    9105     8705     8755 1
    9106     8705     8756 1
    9107     8706     8707 1
    9108     8706     8757 1
    9109     8706     8758 1
    9110     8707     8708 1
    9111     8707     8759 1
    9112     8707     8760 1
    9113     8708     8709 1
    9114     8708     8761 1
    9115     8708     8762 1
    9116     8709     8710 1
    9117     8709     8763 1
    9118     8709     8764 1
    9119     8710     8765 1
    9120     8710     8766 1
    9121     8710     8767 1
    9122     8711     8712 1
    9123     8711     8768 1
    9124     8711     8769 1
    9125     8712     8713 1
    9126     8712     8770 1
    9127     8712     8771 1
    9128     8713     8714 1
    9129     8713     8772 1
    9130     8713     8773 1
    9131     8714     8715 1
    9132     8714     8774 1
    9133     8714     8775 1
    9134     8715     8716 1
    9135     8715     8776 1
    9136     8715     8777 1
    9137     8716     8717 1
    9138     8716     8778 1
    9139     8716     8779 1
    9140     8717     8718 1
    9141     8717     8780 1
    9142     8717     8781 1
    9143     8718     8782 1
    9144     8718     8783 1
    9145     8718     8784 1
    9146     8785     8786 1
    9147     8785     8792 1
    9148     8785     8824 1
    9149     8786     8787 1
    9150     8786     8790 1
    9151     8787     8788 1
    9152     8787     8791 1
    9153     8788     8789 1
    9154     8789     8790 1
    9155     8789     8800 1
    9156     8790     8796 1
    9157     8791     8792 1
    9158     8791     8795 1
    9159     8792     8793 1
    9160     8793     8794 1
    9161     8793     8797 1
    9162     8794     8795 1
    9163     8798     8799 1
    9164     8798     8806 1
    9165     8799     8800 1
    9166     8799     8807 1
    9167     8800     8801 1
    9168     8801     8802 1
    9169     8801     8805 1
    9170     8802     8803 1
    9171     8803     8804 1
    9172     8804     8805 1
    9173     8805     8806 1
    9174     8806     8916 1
    9175     8808     8809 1
    9176     8808     8841 1
    9177     8808     8842 1
    9178     8808     8843 1
    9179     8809     8810 1
    9180     8809     8844 1
    9181     8809     8845 1
    9182     8810     8811 1
    9183     8810     8846 1
    9184     8810     8847 1
    9185     8811     8812 1
    9186     8811     8848 1
    9187     8811     8849 1
    9188     8812     8813 1
    9189     8812     8850 1
    9190     8812     8851 1
    9191     8813     8814 1
    9192     8813     8852 1
    9193     8813     8853 1
    9194     8814     8815 1
    9195     8814     8854 1
    9196     8814     8855 1
    9197     8815     8816 1
    9198     8815     8856 1
    9199     8815     8857 1
    9200     8816     8817 1
    9201     8816     8823 1
    9202     8816     8858 1
    9203     8817     8818 1
    9204     8817     8859 1
    9205     8817     8860 1
    9206     8818     8819 1
    9207     8818     8861 1
    9208     8818     8862 1
    9209     8819     8820 1
    9210     8819     8863 1
    9211     8819     8864 1
    9212     8820     8821 1
    9213     8820     8865 1
    9214     8820     8866 1
    9215     8821     8822 1
    9216     8821     8867 1
    9217     8821     8868 1
    9218     8822     8869 1
    9219     8822     8870 1
    9220     8822     8871 1
    9221     8823     8824 1
    9222     8823     8872 1
    9223     8823     8873 1
    9224     8824     8825 1
    9225     8825     8826 1
    9226     8825     8874 1
    9227     8825     8875 1
    9228     8826     8827 1
    9229     8826     8833 1
    9230     8826     8876 1
    9231     8827     8828 1
    9232     8827     8877 1
    9233     8827     8878 1
    9234     8828     8829 1
    9235     8828     8879 1
    9236     8828     8880 1
    9237     8829     8830 1
    9238     8829     8881 1
    9239     8829     8882 1
    9240     8830     8831 1
    9241     8830     8883 1
    9242     8830     8884 1
    9243     8831     8832 1
    9244     8831     8885 1
    9245     8831     8886 1
    9246     8832     8887 1
    9247     8832     8888 1
    9248     8832     8889 1
    9249     8833     8834 1
    9250     8833     8890 1
    9251     8833     8891 1
    9252     8834     8835 1
    9253     8834     8892 1
    9254     8834     8893 1
    9255     8835     8836 1
    9256     8835     8894 1
    9257     8835     8895 1
    9258     8836     8837 1
    9259     8836     8896 1
    9260     8836     8897 1
    9261     8837     8838 1
    9262     8837     8898 1
    9263     8837     8899 1
    9264     8838     8839 1
    9265     8838     8900 1
    9266     8838     8901 1
    9267     8839     8840 1
    9268     8839     8902 1
    9269     8839     8903 1
    9270     8840     8904 1
    9271     8840     8905 1
    9272     8840     8906 1
    9273     8907     8908 1
    9274     8907     8914 1
    9275     8907     8946 1
    9276     8908     8909 1
    9277     8908     8912 1
    9278     8909     8910 1
    9279     8909     8913 1
    9280     8910     8911 1
    9281     8911     8912 1
    9282     8911     8922 1
    9283     8912     8918 1
    9284     8913     8914 1
    9285     8913     8917 1
    9286     8914     8915 1
    9287     8915     8916 1
    9288     8915     8919 1
    9289     8916     8917 1
    9290     8920     8921 1
    9291     8920     8928 1
    9292     8921     8922 1
    9293     8921     8929 1
    9294     8922     8923 1
    9295     8923     8924 1
    9296     8923     8927 1
    9297     8924     8925 1
    9298     8925     8926 1
    9299     8926     8927 1
    9300     8927     8928 1
    9301     8928     9038 1
    9302     8930     8931 1
    9303     8930     8963 1
    9304     8930     8964 1
    9305     8930     8965 1
    9306     8931     8932 1
    9307     8931     8966 1
    9308     8931     8967 1
    9309     8932     8933 1
    9310     8932     8968 1
    9311     8932     8969 1
    9312     8933     8934 1
    9313     8933     8970 1
    9314     8933     8971 1
    9315     8934     8935 1
    9316     8934     8972 1
    9317     8934     8973 1
    9318     8935     8936 1
    9319     8935     8974 1
    9320     8935     8975 1
    9321     8936     8937 1
    9322     8936     8976 1
    9323     8936     8977 1
    9324     8937     8938 1
    9325     8937     8978 1
    9326     8937     8979 1
    9327     8938     8939 1
    9328     8938     8945 1
    9329     8938     8980 1
    9330     8939     8940 1
    9331     8939     8981 1
    9332     8939     8982 1
    9333     8940     8941 1
    9334     8940     8983 1
    9335     8940     8984 1
    9336     8941     8942 1
    9337     8941     8985 1
    9338     8941     8986 1
    9339     8942     8943 1
    9340     8942     8987 1
    9341     8942     8988 1
    9342     8943     8944 1
    9343     8943     8989 1
    9344     8943     8990 1
    9345     8944     8991 1
    9346     8944     8992 1
    9347     8944     8993 1
    9348     8945     8946 1
    9349     8945     8994 1
    9350     8945     8995 1
    9351     8946     8947 1
    9352     8947     8948 1
    9353     8947     8996 1
    9354     8947     8997 1
    9355     8948     8949 1
    9356     8948     8955 1
    9357     8948     8998 1
    9358     8949     8950 1
    9359     8949     8999 1
    9360     8949     9000 1
    9361     8950     8951 1
    9362     8950     9001 1
    9363     8950     9002 1
    9364     8951     8952 1
    9365     8951     9003 1
    9366     8951     9004 1
    9367     8952     8953 1
    9368     8952     9005 1
    9369     8952     9006 1
    9370     8953     8954 1
    9371     8953     9007 1
    9372     8953     9008 1
    9373     8954     9009 1
    9374     8954     9010 1
    9375     8954     9011 1
    9376     8955     8956 1
    9377     8955     9012 1
    9378     8955     9013 1
    9379     8956     8957 1
    9380     8956     9014 1
    9381     8956     9015 1
    9382     8957     8958 1
    9383     8957     9016 1
    9384     8957     9017 1
    9385     8958     8959 1
    9386     8958     9018 1
    9387     8958     9019 1
    9388     8959     8960 1
    9389     8959     9020 1
    9390     8959     9021 1
    9391     8960     8961 1
    9392     8960     9022 1
    9393     8960     9023 1
    9394     8961     8962 1
    9395     8961     9024 1
    9396     8961     9025 1
    9397     8962     9026 1
    9398     8962     9027 1
    9399     8962     9028 1
    9400     9029     9030 1
    9401     9029     9036 1
    9402     9029     9068 1
    9403     9030     9031 1
    9404     9030     9034 1
    9405     9031     9032 1
    9406     9031     9035 1
    9407     9032     9033 1
    9408     9033     9034 1
    9409     9033     9044 1
    9410     9034     9040 1
    9411     9035     9036 1
    9412     9035     9039 1
    9413     9036     9037 1
    9414     9037     9038 1
    9415     9037     9041 1
    9416     9038     9039 1
    9417     9042     9043 1
    9418     9042     9050 1
    9419     9043     9044 1
    9420     9043     9051 1
    9421     9044     9045 1
    9422     9045     9046 1
    9423     9045     9049 1
    9424     9046     9047 1
    9425     9047     9048 1
    9426     9048     9049 1
    9427     9049     9050 1
    9428     9050     9160 1
    9429     9052     9053 1
    9430     9052     9085 1
    9431     9052     9086 1
    9432     9052     9087 1
    9433     9053     9054 1
    9434     9053     9088 1
    9435     9053     9089 1
    9436     9054     9055 1
    9437     9054     9090 1
    9438     9054     9091 1
    9439     9055     9056 1
    9440     9055     9092 1
    9441     9055     9093 1
    9442     9056     9057 1
    9443     9056     9094 1
    9444     9056     9095 1
    9445     9057     9058 1
    9446     9057     9096 1
    9447     9057     9097 1
    9448     9058     9059 1
    9449     9058     9098 1
    9450     9058     9099 1
    9451     9059     9060 1
    9452     9059     9100 1
    9453     9059     9101 1
    9454     9060     9061 1
    9455     9060     9067 1
    9456     9060     9102 1
    9457     9061     9062 1
    9458     9061     9103 1
    9459     9061     9104 1
    9460     9062     9063 1
    9461     9062     9105 1
    9462     9062     9106 1
    9463     9063     9064 1
    9464     9063     9107 1
    9465     9063     9108 1
    9466     9064     9065 1
    9467     9064     9109 1
    9468     9064     9110 1
    9469     9065     9066 1
    9470     9065     9111 1
    9471     9065     9112 1
    9472     9066     9113 1
    9473     9066     9114 1
    9474     9066     9115 1
    9475     9067     9068 1
    9476     9067     9116 1
    9477     9067     9117 1
    9478     9068     9069 1
    9479     9069     9070 1
    9480     9069     9118 1
    9481     9069     9119 1
    9482     9070     9071 1
    9483     9070     9077 1
    9484     9070     9120 1
    9485     9071     9072 1
    9486     9071     9121 1
    9487     9071     9122 1
    9488     9072     9073 1
    9489     9072     9123 1
    9490     9072     9124 1
    9491     9073     9074 1
    9492     9073     9125 1
    9493     9073     9126 1
    9494     9074     9075 1
    9495     9074     9127 1
    9496     9074     9128 1
    9497     9075     9076 1
    9498     9075     9129 1
    9499     9075     9130 1
    9500     9076     9131 1
    9501     9076     9132 1
    9502     9076     9133 1
    9503     9077     9078 1
    9504     9077     9134 1
    9505     9077     9135 1
    9506     9078     9079 1
    9507     9078     9136 1
    9508     9078     9137 1
    9509     9079     9080 1
    9510     9079     9138 1
    9511     9079     9139 1
    9512     9080     9081 1
    9513     9080     9140 1
    9514     9080     9141 1
    9515     9081     9082 1
    9516     9081     9142 1
    9517     9081     9143 1
    9518     9082     9083 1
    9519     9082     9144 1
    9520     9082     9145 1
    9521     9083     9084 1
    9522     9083     9146 1
    9523     9083     9147 1
    9524     9084     9148 1
    9525     9084     9149 1
    9526     9084     9150 1
    9527     9151     9152 1
    9528     9151     9158 1
    9529     9151     9190 1
    9530     9152     9153 1
    9531     9152     9156 1
    9532     9153     9154 1
    9533     9153     9157 1
    9534     9154     9155 1
    9535     9155     9156 1
    9536     9155     9166 1
    9537     9156     9162 1
    9538     9157     9158 1
    9539     9157     9161 1
    9540     9158     9159 1
    9541     9159     9160 1
    9542     9159     9163 1
    9543     9160     9161 1
    9544     9164     9165 1
    9545     9164     9172 1
    9546     9165     9166 1
    9547     9165     9173 1
    9548     9166     9167 1
    9549     9167     9168 1
    9550     9167     9171 1
    9551     9168     9169 1
    9552     9169     9170 1
    9553     9170     9171 1
    9554     9171     9172 1
    9555     9172     9282 1
    9556     9174     9175 1
    9557     9174     9207 1
    9558     9174     9208 1
    9559     9174     9209 1
    9560     9175     9176 1
    9561     9175     9210 1
    9562     9175     9211 1
    9563     9176     9177 1
    9564     9176     9212 1
    9565     9176     9213 1
    9566     9177     9178 1
    9567     9177     9214 1
    9568     9177     9215 1
    9569     9178     9179 1
    9570     9178     9216 1
    9571     9178     9217 1
    9572     9179     9180 1
    9573     9179     9218 1
    9574     9179     9219 1
    9575     9180     9181 1
    9576     9180     9220 1
    9577     9180     9221 1
    9578     9181     9182 1
    9579     9181     9222 1
    9580     9181     9223 1
    9581     9182     9183 1
    9582     9182     9189 1
    9583     9182     9224 1
    9584     9183     9184 1
    9585     9183     9225 1
    9586     9183     9226 1
    9587     9184     9185 1
    9588     9184     9227 1
    9589     9184     9228 1
    9590     9185     9186 1
    9591     9185     9229 1
    9592     9185     9230 1
    9593     9186     9187 1
    9594     9186     9231 1
    9595     9186     9232 1
    9596     9187     9188 1
    9597     9187     9233 1
    9598     9187     9234 1
    9599     9188     9235 1
    9600     9188     9236 1
    9601     9188     9237 1
    9602     9189     9190 1
    9603     9189     9238 1
    9604     9189     9239 1
    9605     9190     9191 1
    9606     9191     9192 1
    9607     9191     9240 1
    9608     9191     9241 1
    9609     9192     9193 1
    9610     9192     9199 1
    9611     9192     9242 1
    9612     9193     9194 1
    9613     9193     9243 1
    9614     9193     9244 1
    9615     9194     9195 1
    9616     9194     9245 1
    9617     9194     9246 1
    9618     9195     9196 1
    9619     9195     9247 1
    9620     9195     9248 1
    9621     9196     9197 1
    9622     9196     9249 1
    9623     9196     9250 1
    9624     9197     9198 1
    9625     9197     9251 1
    9626     9197     9252 1
    9627     9198     9253 1
    9628     9198     9254 1
    9629     9198     9255 1
    9630     9199     9200 1
    9631     9199     9256 1
    9632     9199     9257 1
    9633     9200     9201 1
    9634     9200     9258 1
    9635     9200     9259 1
    9636     9201     9202 1
    9637     9201     9260 1
    9638     9201     9261 1
    9639     9202     9203 1
    9640     9202     9262 1
    9641     9202     9263 1
    9642     9203     9204 1
    9643     9203     9264 1
    9644     9203     9265 1
    9645     9204     9205 1
    9646     9204     9266 1
    9647     9204     9267 1
    9648     9205     9206 1
    9649     9205     9268 1
    9650     9205     9269 1
    9651     9206     9270 1
    9652     9206     9271 1
    9653     9206     9272 1
    9654     9273     9274 1
    9655     9273     9280 1
    9656     9273     9312 1
    9657     9274     9275 1
    9658     9274     9278 1
    9659     9275     9276 1
    9660     9275     9279 1
    9661     9276     9277 1
    9662     9277     9278 1
    9663     9277     9288 1
    9664     9278     9284 1
    9665     9279     9280 1
    9666     9279     9283 1
    9667     9280     9281 1
    9668     9281     9282 1
    9669     9281     9285 1
    9670     9282     9283 1
    9671     9286     9287 1
    9672     9286     9294 1
    9673     9287     9288 1
    9674     9287     9295 1
    9675     9288     9289 1
    9676     9289     9290 1
    9677     9289     9293 1
    9678     9290     9291 1
    9679     9291     9292 1
    9680     9292     9293 1
    9681     9293     9294 1
    9682     9294     9404 1
    9683     9296     9297 1
    9684     9296     9329 1
    9685     9296     9330 1
    9686     9296     9331 1
    9687     9297     9298 1
    9688     9297     9332 1
    9689     9297     9333 1
    9690     9298     9299 1
    9691     9298     9334 1
    9692     9298     9335 1
    9693     9299     9300 1
    9694     9299     9336 1
    9695     9299     9337 1
    9696     9300     9301 1
    9697     9300     9338 1
    9698     9300     9339 1
    9699     9301     9302 1
    9700     9301     9340 1
    9701     9301     9341 1
    9702     9302     9303 1
    9703     9302     9342 1
    9704     9302     9343 1
    9705     9303     9304 1
    9706     9303     9344 1
    9707     9303     9345 1
    9708     9304     9305 1
    9709     9304     9311 1
    9710     9304     9346 1
    9711     9305     9306 1
    9712     9305     9347 1
    9713     9305     9348 1
    9714     9306     9307 1
    9715     9306     9349 1
    9716     9306     9350 1
    9717     9307     9308 1
    9718     9307     9351 1
    9719     9307     9352 1
    9720     9308     9309 1
    9721     9308     9353 1
    9722     9308     9354 1
    9723     9309     9310 1
    9724     9309     9355 1
    9725     9309     9356 1
    9726     9310     9357 1
    9727     9310     9358 1
    9728     9310     9359 1
    9729     9311     9312 1
    9730     9311     9360 1
    9731     9311     9361 1
    9732     9312     9313 1
    9733     9313     9314 1
    9734     9313     9362 1
    9735     9313     9363 1
    9736     9314     9315 1
    9737     9314     9321 1
    9738     9314     9364 1
    9739     9315     9316 1
    9740     9315     9365 1
    9741     9315     9366 1
    9742     9316     9317 1
    9743     9316     9367 1
    9744     9316     9368 1
    9745     9317     9318 1
    9746     9317     9369 1
    9747     9317     9370 1
    9748     9318     9319 1
    9749     9318     9371 1
    9750     9318     9372 1
    9751     9319     9320 1
    9752     9319     9373 1
    9753     9319     9374 1
    9754     9320     9375 1
    9755     9320     9376 1
    9756     9320     9377 1
    9757     9321     9322 1
    9758     9321     9378 1
    9759     9321     9379 1
    9760     9322     9323 1
    9761     9322     9380 1
    9762     9322     9381 1
    9763     9323     9324 1
    9764     9323     9382 1
    9765     9323     9383 1
    9766     9324     9325 1
    9767     9324     9384 1
    9768     9324     9385 1
    9769     9325     9326 1
    9770     9325     9386 1
    9771     9325     9387 1
    9772     9326     9327 1
    9773     9326     9388 1
    9774     9326     9389 1
    9775     9327     9328 1
    9776     9327     9390 1
    9777     9327     9391 1
    9778     9328     9392 1
    9779     9328     9393 1
    9780     9328     9394 1
    9781     9395     9396 1
    9782     9395     9402 1
    9783     9395     9434 1
    9784     9396     9397 1
    9785     9396     9400 1
    9786     9397     9398 1
    9787     9397     9401 1
    9788     9398     9399 1
    9789     9399     9400 1
    9790     9399     9410 1
    9791     9400     9406 1
    9792     9401     9402 1
    9793     9401     9405 1
    9794     9402     9403 1
    9795     9403     9404 1
    9796     9403     9407 1
    9797     9404     9405 1
    9798     9408     9409 1
    9799     9408     9416 1
    9800     9409     9410 1
    9801     9409     9417 1
    9802     9410     9411 1
    9803     9411     9412 1
    9804     9411     9415 1
    9805     9412     9413 1
    9806     9413     9414 1
    9807     9414     9415 1
    9808     9415     9416 1
    9809     9416     9526 1
    9810     9418     9419 1
    9811     9418     9451 1
    9812     9418     9452 1
    9813     9418     9453 1
    9814     9419     9420 1
    9815     9419     9454 1
    9816     9419     9455 1
    9817     9420     9421 1
    9818     9420     9456 1
    9819     9420     9457 1
    9820     9421     9422 1
    9821     9421     9458 1
    9822     9421     9459 1
    9823     9422     9423 1
    9824     9422     9460 1
    9825     9422     9461 1
    9826     9423     9424 1
    9827     9423     9462 1
    9828     9423     9463 1
    9829     9424     9425 1
    9830     9424     9464 1
    9831     9424     9465 1
    9832     9425     9426 1
    9833     9425     9466 1
    9834     9425     9467 1
    9835     9426     9427 1
    9836     9426     9433 1
    9837     9426     9468 1
    9838     9427     9428 1
    9839     9427     9469 1
    9840     9427     9470 1
    9841     9428     9429 1
    9842     9428     9471 1
    9843     9428     9472 1
    9844     9429     9430 1
    9845     9429     9473 1
    9846     9429     9474 1
    9847     9430     9431 1
    9848     9430     9475 1
    9849     9430     9476 1
    9850     9431     9432 1
    9851     9431     9477 1
    9852     9431     9478 1
    9853     9432     9479 1
    9854     9432     9480 1
    9855     9432     9481 1
    9856     9433     9434 1
    9857     9433     9482 1
    9858     9433     9483 1
    9859     9434     9435 1
    9860     9435     9436 1
    9861     9435     9484 1
    9862     9435     9485 1
    9863     9436     9437 1
    9864     9436     9443 1
    9865     9436     9486 1
    9866     9437     9438 1
    9867     9437     9487 1
    9868     9437     9488 1
    9869     9438     9439 1
    9870     9438     9489 1
    9871     9438     9490 1
    9872     9439     9440 1
    9873     9439     9491 1
    9874     9439     9492 1
    9875     9440     9441 1
    9876     9440     9493 1
    9877     9440     9494 1
    9878     9441     9442 1
    9879     9441     9495 1
    9880     9441     9496 1
    9881     9442     9497 1
    9882     9442     9498 1
    9883     9442     9499 1
    9884     9443     9444 1
    9885     9443     9500 1
    9886     9443     9501 1
    9887     9444     9445 1
    9888     9444     9502 1
    9889     9444     9503 1
    9890     9445     9446 1
    9891     9445     9504 1
    9892     9445     9505 1
    9893     9446     9447 1
    9894     9446     9506 1
    9895     9446     9507 1
    9896     9447     9448 1
    9897     9447     9508 1
    9898     9447     9509 1
    9899     9448     9449 1
    9900     9448     9510 1
    9901     9448     9511 1
    9902     9449     9450 1
    9903     9449     9512 1
    9904     9449     9513 1
    9905     9450     9514 1
    9906     9450     9515 1
    9907     9450     9516 1
    9908     9517     9518 1
    9909     9517     9524 1
    9910     9517     9556 1
    9911     9518     9519 1
    9912     9518     9522 1
    9913     9519     9520 1
    9914     9519     9523 1
    9915     9520     9521 1
    9916     9521     9522 1
    9917     9521     9532 1
    9918     9522     9528 1
    9919     9523     9524 1
    9920     9523     9527 1
    9921     9524     9525 1
    9922     9525     9526 1
    9923     9525     9529 1
    9924     9526     9527 1
    9925     9530     9531 1
    9926     9530     9538 1
    9927     9531     9532 1
    9928     9531     9539 1
    9929     9532     9533 1
    9930     9533     9534 1
    9931     9533     9537 1
    9932     9534     9535 1
    9933     9535     9536 1
    9934     9536     9537 1
    9935     9537     9538 1
    9936     9538     9648 1
    9937     9540     9541 1
    9938     9540     9573 1
    9939     9540     9574 1
    9940     9540     9575 1
    9941     9541     9542 1
    9942     9541     9576 1
    9943     9541     9577 1
    9944     9542     9543 1
    9945     9542     9578 1
    9946     9542     9579 1
    9947     9543     9544 1
    9948     9543     9580 1
    9949     9543     9581 1
    9950     9544     9545 1
    9951     9544     9582 1
    9952     9544     9583 1
    9953     9545     9546 1
    9954     9545     9584 1
    9955     9545     9585 1
    9956     9546     9547 1
    9957     9546     9586 1
    9958     9546     9587 1
    9959     9547     9548 1
    9960     9547     9588 1
    9961     9547     9589 1
    9962     9548     9549 1
    9963     9548     9555 1
    9964     9548     9590 1
    9965     9549     9550 1
    9966     9549     9591 1
    9967     9549     9592 1
    9968     9550     9551 1
    9969     9550     9593 1
    9970     9550     9594 1
    9971     9551     9552 1
    9972     9551     9595 1
    9973     9551     9596 1
    9974     9552     9553 1
    9975     9552     9597 1
    9976     9552     9598 1
    9977     9553     9554 1
    9978     9553     9599 1
    9979     9553     9600 1
    9980     9554     9601 1
    9981     9554     9602 1
    9982     9554     9603 1
    9983     9555     9556 1
    9984     9555     9604 1
    9985     9555     9605 1
    9986     9556     9557 1
    9987     9557     9558 1
    9988     9557     9606 1
    9989     9557     9607 1
    9990     9558     9559 1
    9991     9558     9565 1
    9992     9558     9608 1
    9993     9559     9560 1
    9994     9559     9609 1
    9995     9559     9610 1
    9996     9560     9561 1
    9997     9560     9611 1
    9998     9560     9612 1
    9999     9561     9562 1
   10000     9561     9613 1
   10001     9561     9614 1
   10002     9562     9563 1
   10003     9562     9615 1
   10004     9562     9616 1
   10005     9563     9564 1
   10006     9563     9617 1
   10007     9563     9618 1
   10008     9564     9619 1
   10009     9564     9620 1
   10010     9564     9621 1
   10011     9565     9566 1
   10012     9565     9622 1
   10013     9565     9623 1
   10014     9566     9567 1
   10015     9566     9624 1
   10016     9566     9625 1
   10017     9567     9568 1
   10018     9567     9626 1
   10019     9567     9627 1
   10020     9568     9569 1
   10021     9568     9628 1
   10022     9568     9629 1
   10023     9569     9570 1
   10024     9569     9630 1
   10025     9569     9631 1
   10026     9570     9571 1
   10027     9570     9632 1
   10028     9570     9633 1
   10029     9571     9572 1
   10030     9571     9634 1
   10031     9571     9635 1
   10032     9572     9636 1
   10033     9572     9637 1
   10034     9572     9638 1
   10035     9639     9640 1
   10036     9639     9646 1
   10037     9639     9678 1
   10038     9640     9641 1
   10039     9640     9644 1
   10040     9641     9642 1
   10041     9641     9645 1
   10042     9642     9643 1
   10043     9643     9644 1
   10044     9643     9654 1
   10045     9644     9650 1
   10046     9645     9646 1
   10047     9645     9649 1
   10048     9646     9647 1
   10049     9647     9648 1
   10050     9647     9651 1
   10051     9648     9649 1
   10052     9652     9653 1
   10053     9652     9660 1
   10054     9653     9654 1
   10055     9653     9661 1
   10056     9654     9655 1
   10057     9655     9656 1
   10058     9655     9659 1
   10059     9656     9657 1
   10060     9657     9658 1
   10061     9658     9659 1
   10062     9659     9660 1
   10063     9660     9770 1
   10064     9662     9663 1
   10065     9662     9695 1
   10066     9662     9696 1
   10067     9662     9697 1
   10068     9663     9664 1
   10069     9663     9698 1
   10070     9663     9699 1
   10071     9664     9665 1
   10072     9664     9700 1
   10073     9664     9701 1
   10074     9665     9666 1
   10075     9665     9702 1
   10076     9665     9703 1
   10077     9666     9667 1
   10078     9666     9704 1
   10079     9666     9705 1
   10080     9667     9668 1
   10081     9667     9706 1
   10082     9667     9707 1
   10083     9668     9669 1
   10084     9668     9708 1
   10085     9668     9709 1
   10086     9669     9670 1
   10087     9669     9710 1
   10088     9669     9711 1
   10089     9670     9671 1
   10090     9670     9677 1
   10091     9670     9712 1
   10092     9671     9672 1
   10093     9671     9713 1
   10094     9671     9714 1
   10095     9672     9673 1
   10096     9672     9715 1
   10097     9672     9716 1
   10098     9673     9674 1
   10099     9673     9717 1
   10100     9673     9718 1
   10101     9674     9675 1
   10102     9674     9719 1
   10103     9674     9720 1
   10104     9675     9676 1
   10105     9675     9721 1
   10106     9675     9722 1
   10107     9676     9723 1
   10108     9676     9724 1
   10109     9676     9725 1
   10110     9677     9678 1
   10111     9677     9726 1
   10112     9677     9727 1
   10113     9678     9679 1
   10114     9679     9680 1
   10115     9679     9728 1
   10116     9679     9729 1
   10117     9680     9681 1
   10118     9680     9687 1
   10119     9680     9730 1
   10120     9681     9682 1
   10121     9681     9731 1
   10122     9681     9732 1
   10123     9682     9683 1
   10124     9682     9733 1
   10125     9682     9734 1
   10126     9683     9684 1
   10127     9683     9735 1
   10128     9683     9736 1
   10129     9684     9685 1
   10130     9684     9737 1
   10131     9684     9738 1
   10132     9685     9686 1
   10133     9685     9739 1
   10134     9685     9740 1
   10135     9686     9741 1
   10136     9686     9742 1
   10137     9686     9743 1
   10138     9687     9688 1
   10139     9687     9744 1
   10140     9687     9745 1
   10141     9688     9689 1
   10142     9688     9746 1
   10143     9688     9747 1
   10144     9689     9690 1
   10145     9689     9748 1
   10146     9689     9749 1
   10147     9690     9691 1
   10148     9690     9750 1
   10149     9690     9751 1
   10150     9691     9692 1
   10151     9691     9752 1
   10152     9691     9753 1
   10153     9692     9693 1
   10154     9692     9754 1
   10155     9692     9755 1
   10156     9693     9694 1
   10157     9693     9756 1
   10158     9693     9757 1
   10159     9694     9758 1
   10160     9694     9759 1
   10161     9694     9760 1
   10162     9761     9762 1
   10163     9761     9768 1
   10164     9761     9800 1
   10165     9762     9763 1
   10166     9762     9766 1
   10167     9763     9764 1
   10168     9763     9767 1
   10169     9764     9765 1
   10170     9765     9766 1
   10171     9765     9776 1
   10172     9766     9772 1
   10173     9767     9768 1
   10174     9767     9771 1
   10175     9768     9769 1
   10176     9769     9770 1
   10177     9769     9773 1
   10178     9770     9771 1
   10179     9774     9775 1
   10180     9774     9782 1
   10181     9775     9776 1
   10182     9775     9783 1
   10183     9776     9777 1
   10184     9777     9778 1
   10185     9777     9781 1
   10186     9778     9779 1
   10187     9779     9780 1
   10188     9780     9781 1
   10189     9781     9782 1
   10190     9782     9892 1
   10191     9784     9785 1
   10192     9784     9817 1
   10193     9784     9818 1
   10194     9784     9819 1
   10195     9785     9786 1
   10196     9785     9820 1
   10197     9785     9821 1
   10198     9786     9787 1
   10199     9786     9822 1
   10200     9786     9823 1
   10201     9787     9788 1
   10202     9787     9824 1
   10203     9787     9825 1
   10204     9788     9789 1
   10205     9788     9826 1
   10206     9788     9827 1
   10207     9789     9790 1
   10208     9789     9828 1
   10209     9789     9829 1
   10210     9790     9791 1
   10211     9790     9830 1
   10212     9790     9831 1
   10213     9791     9792 1
   10214     9791     9832 1
   10215     9791     9833 1
   10216     9792     9793 1
   10217     9792     9799 1
   10218     9792     9834 1
   10219     9793     9794 1
   10220     9793     9835 1
   10221     9793     9836 1
   10222     9794     9795 1
   10223     9794     9837 1
   10224     9794     9838 1
   10225     9795     9796 1
   10226     9795     9839 1
   10227     9795     9840 1
   10228     9796     9797 1
   10229     9796     9841 1
   10230     9796     9842 1
   10231     9797     9798 1
   10232     9797     9843 1
   10233     9797     9844 1
   10234     9798     9845 1
   10235     9798     9846 1
   10236     9798     9847 1
   10237     9799     9800 1
   10238     9799     9848 1
   10239     9799     9849 1
   10240     9800     9801 1
   10241     9801     9802 1
   10242     9801     9850 1
   10243     9801     9851 1
   10244     9802     9803 1
   10245     9802     9809 1
   10246     9802     9852 1
   10247     9803     9804 1
   10248     9803     9853 1
   10249     9803     9854 1
   10250     9804     9805 1
   10251     9804     9855 1
   10252     9804     9856 1
   10253     9805     9806 1
   10254     9805     9857 1
   10255     9805     9858 1
   10256     9806     9807 1
   10257     9806     9859 1
   10258     9806     9860 1
   10259     9807     9808 1
   10260     9807     9861 1
   10261     9807     9862 1
   10262     9808     9863 1
   10263     9808     9864 1
   10264     9808     9865 1
   10265     9809     9810 1
   10266     9809     9866 1
   10267     9809     9867 1
   10268     9810     9811 1
   10269     9810     9868 1
   10270     9810     9869 1
   10271     9811     9812 1
   10272     9811     9870 1
   10273     9811     9871 1
   10274     9812     9813 1
   10275     9812     9872 1
   10276     9812     9873 1
   10277     9813     9814 1
   10278     9813     9874 1
   10279     9813     9875 1
   10280     9814     9815 1
   10281     9814     9876 1
   10282     9814     9877 1
   10283     9815     9816 1
   10284     9815     9878 1
   10285     9815     9879 1
   10286     9816     9880 1
   10287     9816     9881 1
   10288     9816     9882 1
   10289     9883     9884 1
   10290     9883     9890 1
   10291     9883     9922 1
   10292     9884     9885 1
   10293     9884     9888 1
   10294     9885     9886 1
   10295     9885     9889 1
   10296     9886     9887 1
   10297     9887     9888 1
   10298     9887     9898 1
   10299     9888     9894 1
   10300     9889     9890 1
   10301     9889     9893 1
   10302     9890     9891 1
   10303     9891     9892 1
   10304     9891     9895 1
   10305     9892     9893 1
   10306     9896     9897 1
   10307     9896     9904 1
   10308     9897     9898 1
   10309     9897     9905 1
   10310     9898     9899 1
   10311     9899     9900 1
   10312     9899     9903 1
   10313     9900     9901 1
   10314     9901     9902 1
   10315     9902     9903 1
   10316     9903     9904 1
   10317     9904    10014 1
   10318     9906     9907 1
   10319     9906     9939 1
   10320     9906     9940 1
   10321     9906     9941 1
   10322     9907     9908 1
   10323     9907     9942 1
   10324     9907     9943 1
   10325     9908     9909 1
   10326     9908     9944 1
   10327     9908     9945 1
   10328     9909     9910 1
   10329     9909     9946 1
   10330     9909     9947 1
   10331     9910     9911 1
   10332     9910     9948 1
   10333     9910     9949 1
   10334     9911     9912 1
   10335     9911     9950 1
   10336     9911     9951 1
   10337     9912     9913 1
   10338     9912     9952 1
   10339     9912     9953 1
   10340     9913     9914 1
   10341     9913     9954 1
   10342     9913     9955 1
   10343     9914     9915 1
   10344     9914     9921 1
   10345     9914     9956 1
   10346     9915     9916 1
   10347     9915     9957 1
   10348     9915     9958 1
   10349     9916     9917 1
   10350     9916     9959 1
   10351     9916     9960 1
   10352     9917     9918 1
   10353     9917     9961 1
   10354     9917     9962 1
   10355     9918     9919 1
   10356     9918     9963 1
   10357     9918     9964 1
   10358     9919     9920 1
   10359     9919     9965 1
   10360     9919     9966 1
   10361     9920     9967 1
   10362     9920     9968 1
   10363     9920     9969 1
   10364     9921     9922 1
   10365     9921     9970 1
   10366     9921     9971 1
   10367     9922     9923 1
   10368     9923     9924 1
   10369     9923     9972 1
   10370     9923     9973 1
   10371     9924     9925 1
   10372     9924     9931 1
   10373     9924     9974 1
   10374     9925     9926 1
   10375     9925     9975 1
   10376     9925     9976 1
   10377     9926     9927 1
   10378     9926     9977 1
   10379     9926     9978 1
   10380     9927     9928 1
   10381     9927     9979 1
   10382     9927     9980 1
   10383     9928     9929 1
   10384     9928     9981 1
   10385     9928     9982 1
   10386     9929     9930 1
   10387     9929     9983 1
   10388     9929     9984 1
   10389     9930     9985 1
   10390     9930     9986 1
   10391     9930     9987 1
   10392     9931     9932 1
   10393     9931     9988 1
   10394     9931     9989 1
   10395     9932     9933 1
   10396     9932     9990 1
   10397     9932     9991 1
   10398     9933     9934 1
   10399     9933     9992 1
   10400     9933     9993 1
   10401     9934     9935 1
   10402     9934     9994 1
   10403     9934     9995 1
   10404     9935     9936 1
   10405     9935     9996 1
   10406     9935     9997 1
   10407     9936     9937 1
   10408     9936     9998 1
   10409     9936     9999 1
   10410     9937     9938 1
   10411     9937    10000 1
   10412     9937    10001 1
   10413     9938    10002 1
   10414     9938    10003 1
   10415     9938    10004 1
   10416    10005    10006 1
   10417    10005    10012 1
   10418    10005    10044 1
   10419    10006    10007 1
   10420    10006    10010 1
   10421    10007    10008 1
   10422    10007    10011 1
   10423    10008    10009 1
   10424    10009    10010 1
   10425    10009    10020 1
   10426    10010    10016 1
   10427    10011    10012 1
   10428    10011    10015 1
   10429    10012    10013 1
   10430    10013    10014 1
   10431    10013    10017 1
   10432    10014    10015 1
   10433    10018    10019 1
   10434    10018    10026 1
   10435    10019    10020 1
   10436    10019    10027 1
   10437    10020    10021 1
   10438    10021    10022 1
   10439    10021    10025 1
   10440    10022    10023 1
   10441    10023    10024 1
   10442    10024    10025 1
   10443    10025    10026 1
   10444    10026    10136 1
   10445    10028    10029 1
   10446    10028    10061 1
   10447    10028    10062 1
   10448    10028    10063 1
   10449    10029    10030 1
   10450    10029    10064 1
   10451    10029    10065 1
   10452    10030    10031 1
   10453    10030    10066 1
   10454    10030    10067 1
   10455    10031    10032 1
   10456    10031    10068 1
   10457    10031    10069 1
   10458    10032    10033 1
   10459    10032    10070 1
   10460    10032    10071 1
   10461    10033    10034 1
   10462    10033    10072 1
   10463    10033    10073 1
   10464    10034    10035 1
   10465    10034    10074 1
   10466    10034    10075 1
   10467    10035    10036 1
   10468    10035    10076 1
   10469    10035    10077 1
   10470    10036    10037 1
   10471    10036    10043 1
   10472    10036    10078 1
   10473    10037    10038 1
   10474    10037    10079 1
   10475    10037    10080 1
   10476    10038    10039 1
   10477    10038    10081 1
   10478    10038    10082 1
   10479    10039    10040 1
   10480    10039    10083 1
   10481    10039    10084 1
   10482    10040    10041 1
   10483    10040    10085 1
   10484    10040    10086 1
   10485    10041    10042 1
   10486    10041    10087 1
   10487    10041    10088 1
   10488    10042    10089 1
   10489    10042    10090 1
   10490    10042    10091 1
   10491    10043    10044 1
   10492    10043    10092 1
   10493    10043    10093 1
   10494    10044    10045 1
   10495    10045    10046 1
   10496    10045    10094 1
   10497    10045    10095 1
   10498    10046    10047 1
   10499    10046    10053 1
   10500    10046    10096 1
   10501    10047    10048 1
   10502    10047    10097 1
   10503    10047    10098 1
   10504    10048    10049 1
   10505    10048    10099 1
   10506    10048    10100 1
   10507    10049    10050 1
   10508    10049    10101 1
   10509    10049    10102 1
   10510    10050    10051 1
   10511    10050    10103 1
   10512    10050    10104 1
   10513    10051    10052 1
   10514    10051    10105 1
   10515    10051    10106 1
   10516    10052    10107 1
   10517    10052    10108 1
   10518    10052    10109 1
   10519    10053    10054 1
   10520    10053    10110 1
   10521    10053    10111 1
   10522    10054    10055 1
   10523    10054    10112 1
   10524    10054    10113 1
   10525    10055    10056 1
   10526    10055    10114 1
   10527    10055    10115 1
   10528    10056    10057 1
   10529    10056    10116 1
   10530    10056    10117 1
   10531    10057    10058 1
   10532    10057    10118 1
   10533    10057    10119 1
   10534    10058    10059 1
   10535    10058    10120 1
   10536    10058    10121 1
   10537    10059    10060 1
   10538    10059    10122 1
   10539    10059    10123 1
   10540    10060    10124 1
   10541    10060    10125 1
   10542    10060    10126 1
   10543    10127    10128 1
   10544    10127    10134 1
   10545    10127    10166 1
   10546    10128    10129 1
   10547    10128    10132 1
   10548    10129    10130 1
   10549    10129    10133 1
   10550    10130    10131 1
   10551    10131    10132 1
   10552    10131    10142 1
   10553    10132    10138 1
   10554    10133    10134 1
   10555    10133    10137 1
   10556    10134    10135 1
   10557    10135    10136 1
   10558    10135    10139 1
   10559    10136    10137 1
   10560    10140    10141 1
   10561    10140    10148 1
   10562    10141    10142 1
   10563    10141    10149 1
   10564    10142    10143 1
   10565    10143    10144 1
   10566    10143    10147 1
   10567    10144    10145 1
   10568    10145    10146 1
   10569    10146    10147 1
   10570    10147    10148 1
   10571    10148    10258 1
   10572    10150    10151 1
   10573    10150    10183 1
   10574    10150    10184 1
   10575    10150    10185 1
   10576    10151    10152 1
   10577    10151    10186 1
   10578    10151    10187 1
   10579    10152    10153 1
   10580    10152    10188 1
   10581    10152    10189 1
   10582    10153    10154 1
   10583    10153    10190 1
   10584    10153    10191 1
   10585    10154    10155 1
   10586    10154    10192 1
   10587    10154    10193 1
   10588    10155    10156 1
   10589    10155    10194 1
   10590    10155    10195 1
   10591    10156    10157 1
   10592    10156    10196 1
   10593    10156    10197 1
   10594    10157    10158 1
   10595    10157    10198 1
   10596    10157    10199 1
   10597    10158    10159 1
   10598    10158    10165 1
   10599    10158    10200 1
   10600    10159    10160 1
   10601    10159    10201 1
   10602    10159    10202 1
   10603    10160    10161 1
   10604    10160    10203 1
   10605    10160    10204 1
   10606    10161    10162 1
   10607    10161    10205 1
   10608    10161    10206 1
   10609    10162    10163 1
   10610    10162    10207 1
   10611    10162    10208 1
   10612    10163    10164 1
   10613    10163    10209 1
   10614    10163    10210 1
   10615    10164    10211 1
   10616    10164    10212 1
   10617    10164    10213 1
   10618    10165    10166 1
   10619    10165    10214 1
   10620    10165    10215 1
   10621    10166    10167 1
   10622    10167    10168 1
   10623    10167    10216 1
   10624    10167    10217 1
   10625    10168    10169 1
   10626    10168    10175 1
   10627    10168    10218 1
   10628    10169    10170 1
   10629    10169    10219 1
   10630    10169    10220 1
   10631    10170    10171 1
   10632    10170    10221 1
   10633    10170    10222 1
   10634    10171    10172 1
   10635    10171    10223 1
   10636    10171    10224 1
   10637    10172    10173 1
   10638    10172    10225 1
   10639    10172    10226 1
   10640    10173    10174 1
   10641    10173    10227 1
   10642    10173    10228 1
   10643    10174    10229 1
   10644    10174    10230 1
   10645    10174    10231 1
   10646    10175    10176 1
   10647    10175    10232 1
   10648    10175    10233 1
   10649    10176    10177 1
   10650    10176    10234 1
   10651    10176    10235 1
   10652    10177    10178 1
   10653    10177    10236 1
   10654    10177    10237 1
   10655    10178    10179 1
   10656    10178    10238 1
   10657    10178    10239 1
   10658    10179    10180 1
   10659    10179    10240 1
   10660    10179    10241 1
   10661    10180    10181 1
   10662    10180    10242 1
   10663    10180    10243 1
   10664    10181    10182 1
   10665    10181    10244 1
   10666    10181    10245 1
   10667    10182    10246 1
   10668    10182    10247 1
   10669    10182    10248 1
   10670    10249    10250 1
   10671    10249    10256 1
   10672    10249    10288 1
   10673    10250    10251 1
   10674    10250    10254 1
   10675    10251    10252 1
   10676    10251    10255 1
   10677    10252    10253 1
   10678    10253    10254 1
   10679    10253    10264 1
   10680    10254    10260 1
   10681    10255    10256 1
   10682    10255    10259 1
   10683    10256    10257 1
   10684    10257    10258 1
   10685    10257    10261 1
   10686    10258    10259 1
   10687    10262    10263 1
   10688    10262    10270 1
   10689    10263    10264 1
   10690    10263    10271 1
   10691    10264    10265 1
   10692    10265    10266 1
   10693    10265    10269 1
   10694    10266    10267 1
   10695    10267    10268 1
   10696    10268    10269 1
   10697    10269    10270 1
   10698    10270    10380 1
   10699    10272    10273 1
   10700    10272    10305 1
   10701    10272    10306 1
   10702    10272    10307 1
   10703    10273    10274 1
   10704    10273    10308 1
   10705    10273    10309 1
   10706    10274    10275 1
   10707    10274    10310 1
   10708    10274    10311 1
   10709    10275    10276 1
   10710    10275    10312 1
   10711    10275    10313 1
   10712    10276    10277 1
   10713    10276    10314 1
   10714    10276    10315 1
   10715    10277    10278 1
   10716    10277    10316 1
   10717    10277    10317 1
   10718    10278    10279 1
   10719    10278    10318 1
   10720    10278    10319 1
   10721    10279    10280 1
   10722    10279    10320 1
   10723    10279    10321 1
   10724    10280    10281 1
   10725    10280    10287 1
   10726    10280    10322 1
   10727    10281    10282 1
   10728    10281    10323 1
   10729    10281    10324 1
   10730    10282    10283 1
   10731    10282    10325 1
   10732    10282    10326 1
   10733    10283    10284 1
   10734    10283    10327 1
   10735    10283    10328 1
   10736    10284    10285 1
   10737    10284    10329 1
   10738    10284    10330 1
   10739    10285    10286 1
   10740    10285    10331 1
   10741    10285    10332 1
   10742    10286    10333 1
   10743    10286    10334 1
   10744    10286    10335 1
   10745    10287    10288 1
   10746    10287    10336 1
   10747    10287    10337 1
   10748    10288    10289 1
   10749    10289    10290 1
   10750    10289    10338 1
   10751    10289    10339 1
   10752    10290    10291 1
   10753    10290    10297 1
   10754    10290    10340 1
   10755    10291    10292 1
   10756    10291    10341 1
   10757    10291    10342 1
   10758    10292    10293 1
   10759    10292    10343 1
   10760    10292    10344 1
   10761    10293    10294 1
   10762    10293    10345 1
   10763    10293    10346 1
   10764    10294    10295 1
   10765    10294    10347 1
   10766    10294    10348 1
   10767    10295    10296 1
   10768    10295    10349 1
   10769    10295    10350 1
   10770    10296    10351 1
   10771    10296    10352 1
   10772    10296    10353 1
   10773    10297    10298 1
   10774    10297    10354 1
   10775    10297    10355 1
   10776    10298    10299 1
   10777    10298    10356 1
   10778    10298    10357 1
   10779    10299    10300 1
   10780    10299    10358 1
   10781    10299    10359 1
   10782    10300    10301 1
   10783    10300    10360 1
   10784    10300    10361 1
   10785    10301    10302 1
   10786    10301    10362 1
   10787    10301    10363 1
   10788    10302    10303 1
   10789    10302    10364 1
   10790    10302    10365 1
   10791    10303    10304 1
   10792    10303    10366 1
   10793    10303    10367 1
   10794    10304    10368 1
   10795    10304    10369 1
   10796    10304    10370 1
   10797    10371    10372 1
   10798    10371    10378 1
   10799    10371    10410 1
   10800    10372    10373 1
   10801    10372    10376 1
   10802    10373    10374 1
   10803    10373    10377 1
   10804    10374    10375 1
   10805    10375    10376 1
   10806    10375    10386 1
   10807    10376    10382 1
   10808    10377    10378 1
   10809    10377    10381 1
   10810    10378    10379 1
   10811    10379    10380 1
   10812    10379    10383 1
   10813    10380    10381 1
   10814    10384    10385 1
   10815    10384    10392 1
   10816    10385    10386 1
   10817    10385    10393 1
   10818    10386    10387 1
   10819    10387    10388 1
   10820    10387    10391 1
   10821    10388    10389 1
   10822    10389    10390 1
   10823    10390    10391 1
   10824    10391    10392 1
   10825    10392    10502 1
   10826    10394    10395 1
   10827    10394    10427 1
   10828    10394    10428 1
   10829    10394    10429 1
   10830    10395    10396 1
   10831    10395    10430 1
   10832    10395    10431 1
   10833    10396    10397 1
   10834    10396    10432 1
   10835    10396    10433 1
   10836    10397    10398 1
   10837    10397    10434 1
   10838    10397    10435 1
   10839    10398    10399 1
   10840    10398    10436 1
   10841    10398    10437 1
   10842    10399    10400 1
   10843    10399    10438 1
   10844    10399    10439 1
   10845    10400    10401 1
   10846    10400    10440 1
   10847    10400    10441 1
   10848    10401    10402 1
   10849    10401    10442 1
   10850    10401    10443 1
   10851    10402    10403 1
   10852    10402    10409 1
   10853    10402    10444 1
   10854    10403    10404 1
   10855    10403    10445 1
   10856    10403    10446 1
   10857    10404    10405 1
   10858    10404    10447 1
   10859    10404    10448 1
   10860    10405    10406 1
   10861    10405    10449 1
   10862    10405    10450 1
   10863    10406    10407 1
   10864    10406    10451 1
   10865    10406    10452 1
   10866    10407    10408 1
   10867    10407    10453 1
   10868    10407    10454 1
   10869    10408    10455 1
   10870    10408    10456 1
   10871    10408    10457 1
   10872    10409    10410 1
   10873    10409    10458 1
   10874    10409    10459 1
   10875    10410    10411 1
   10876    10411    10412 1
   10877    10411    10460 1
   10878    10411    10461 1
   10879    10412    10413 1
   10880    10412    10419 1
   10881    10412    10462 1
   10882    10413    10414 1
   10883    10413    10463 1
   10884    10413    10464 1
   10885    10414    10415 1
   10886    10414    10465 1
   10887    10414    10466 1
   10888    10415    10416 1
   10889    10415    10467 1
   10890    10415    10468 1
   10891    10416    10417 1
   10892    10416    10469 1
   10893    10416    10470 1
   10894    10417    10418 1
   10895    10417    10471 1
   10896    10417    10472 1
   10897    10418    10473 1
   10898    10418    10474 1
   10899    10418    10475 1
   10900    10419    10420 1
   10901    10419    10476 1
   10902    10419    10477 1
   10903    10420    10421 1
   10904    10420    10478 1
   10905    10420    10479 1
   10906    10421    10422 1
   10907    10421    10480 1
   10908    10421    10481 1
   10909    10422    10423 1
   10910    10422    10482 1
   10911    10422    10483 1
   10912    10423    10424 1
   10913    10423    10484 1
   10914    10423    10485 1
   10915    10424    10425 1
   10916    10424    10486 1
   10917    10424    10487 1
   10918    10425    10426 1
   10919    10425    10488 1
   10920    10425    10489 1
   10921    10426    10490 1
   10922    10426    10491 1
   10923    10426    10492 1
   10924    10493    10494 1
   10925    10493    10500 1
   10926    10493    10532 1
   10927    10494    10495 1
   10928    10494    10498 1
   10929    10495    10496 1
   10930    10495    10499 1
   10931    10496    10497 1
   10932    10497    10498 1
   10933    10497    10508 1
   10934    10498    10504 1
   10935    10499    10500 1
   10936    10499    10503 1
   10937    10500    10501 1
   10938    10501    10502 1
   10939    10501    10505 1
   10940    10502    10503 1
   10941    10506    10507 1
   10942    10506    10514 1
   10943    10507    10508 1
   10944    10507    10515 1
   10945    10508    10509 1
   10946    10509    10510 1
   10947    10509    10513 1
   10948    10510    10511 1
   10949    10511    10512 1
   10950    10512    10513 1
   10951    10513    10514 1
   10952    10514    10624 1
   10953    10516    10517 1
   10954    10516    10549 1
   10955    10516    10550 1
   10956    10516    10551 1
   10957    10517    10518 1
   10958    10517    10552 1
   10959    10517    10553 1
   10960    10518    10519 1
   10961    10518    10554 1
   10962    10518    10555 1
   10963    10519    10520 1
   10964    10519    10556 1
   10965    10519    10557 1
   10966    10520    10521 1
   10967    10520    10558 1
   10968    10520    10559 1
   10969    10521    10522 1
   10970    10521    10560 1
   10971    10521    10561 1
   10972    10522    10523 1
   10973    10522    10562 1
   10974    10522    10563 1
   10975    10523    10524 1
   10976    10523    10564 1
   10977    10523    10565 1
   10978    10524    10525 1
   10979    10524    10531 1
   10980    10524    10566 1
   10981    10525    10526 1
   10982    10525    10567 1
   10983    10525    10568 1
   10984    10526    10527 1
   10985    10526    10569 1
   10986    10526    10570 1
   10987    10527    10528 1
   10988    10527    10571 1
   10989    10527    10572 1
   10990    10528    10529 1
   10991    10528    10573 1
   10992    10528    10574 1
   10993    10529    10530 1
   10994    10529    10575 1
   10995    10529    10576 1
   10996    10530    10577 1
   10997    10530    10578 1
   10998    10530    10579 1
   10999    10531    10532 1
   11000    10531    10580 1
   11001    10531    10581 1
   11002    10532    10533 1
   11003    10533    10534 1
   11004    10533    10582 1
   11005    10533    10583 1
   11006    10534    10535 1
   11007    10534    10541 1
   11008    10534    10584 1
   11009    10535    10536 1
   11010    10535    10585 1
   11011    10535    10586 1
   11012    10536    10537 1
   11013    10536    10587 1
   11014    10536    10588 1
   11015    10537    10538 1
   11016    10537    10589 1
   11017    10537    10590 1
   11018    10538    10539 1
   11019    10538    10591 1
   11020    10538    10592 1
   11021    10539    10540 1
   11022    10539    10593 1
   11023    10539    10594 1
   11024    10540    10595 1
   11025    10540    10596 1
   11026    10540    10597 1
   11027    10541    10542 1
   11028    10541    10598 1
   11029    10541    10599 1
   11030    10542    10543 1
   11031    10542    10600 1
   11032    10542    10601 1
   11033    10543    10544 1
   11034    10543    10602 1
   11035    10543    10603 1
   11036    10544    10545 1
   11037    10544    10604 1
   11038    10544    10605 1
   11039    10545    10546 1
   11040    10545    10606 1
   11041    10545    10607 1
   11042    10546    10547 1
   11043    10546    10608 1
   11044    10546    10609 1
   11045    10547    10548 1
   11046    10547    10610 1
   11047    10547    10611 1
   11048    10548    10612 1
   11049    10548    10613 1
   11050    10548    10614 1
   11051    10615    10616 1
   11052    10615    10622 1
   11053    10615    10654 1
   11054    10616    10617 1
   11055    10616    10620 1
   11056    10617    10618 1
   11057    10617    10621 1
   11058    10618    10619 1
   11059    10619    10620 1
   11060    10619    10630 1
   11061    10620    10626 1
   11062    10621    10622 1
   11063    10621    10625 1
   11064    10622    10623 1
   11065    10623    10624 1
   11066    10623    10627 1
   11067    10624    10625 1
   11068    10628    10629 1
   11069    10628    10636 1
   11070    10629    10630 1
   11071    10629    10637 1
   11072    10630    10631 1
   11073    10631    10632 1
   11074    10631    10635 1
   11075    10632    10633 1
   11076    10633    10634 1
   11077    10634    10635 1
   11078    10635    10636 1
   11079    10636    10746 1
   11080    10638    10639 1
   11081    10638    10671 1
   11082    10638    10672 1
   11083    10638    10673 1
   11084    10639    10640 1
   11085    10639    10674 1
   11086    10639    10675 1
   11087    10640    10641 1
   11088    10640    10676 1
   11089    10640    10677 1
   11090    10641    10642 1
   11091    10641    10678 1
   11092    10641    10679 1
   11093    10642    10643 1
   11094    10642    10680 1
   11095    10642    10681 1
   11096    10643    10644 1
   11097    10643    10682 1
   11098    10643    10683 1
   11099    10644    10645 1
   11100    10644    10684 1
   11101    10644    10685 1
   11102    10645    10646 1
   11103    10645    10686 1
   11104    10645    10687 1
   11105    10646    10647 1
   11106    10646    10653 1
   11107    10646    10688 1
   11108    10647    10648 1
   11109    10647    10689 1
   11110    10647    10690 1
   11111    10648    10649 1
   11112    10648    10691 1
   11113    10648    10692 1
   11114    10649    10650 1
   11115    10649    10693 1
   11116    10649    10694 1
   11117    10650    10651 1
   11118    10650    10695 1
   11119    10650    10696 1
   11120    10651    10652 1
   11121    10651    10697 1
   11122    10651    10698 1
   11123    10652    10699 1
   11124    10652    10700 1
   11125    10652    10701 1
   11126    10653    10654 1
   11127    10653    10702 1
   11128    10653    10703 1
   11129    10654    10655 1
   11130    10655    10656 1
   11131    10655    10704 1
   11132    10655    10705 1
   11133    10656    10657 1
   11134    10656    10663 1
   11135    10656    10706 1
   11136    10657    10658 1
   11137    10657    10707 1
   11138    10657    10708 1
   11139    10658    10659 1
   11140    10658    10709 1
   11141    10658    10710 1
   11142    10659    10660 1
   11143    10659    10711 1
   11144    10659    10712 1
   11145    10660    10661 1
   11146    10660    10713 1
   11147    10660    10714 1
   11148    10661    10662 1
   11149    10661    10715 1
   11150    10661    10716 1
   11151    10662    10717 1
   11152    10662    10718 1
   11153    10662    10719 1
   11154    10663    10664 1
   11155    10663    10720 1
   11156    10663    10721 1
   11157    10664    10665 1
   11158    10664    10722 1
   11159    10664    10723 1
   11160    10665    10666 1
   11161    10665    10724 1
   11162    10665    10725 1
   11163    10666    10667 1
   11164    10666    10726 1
   11165    10666    10727 1
   11166    10667    10668 1
   11167    10667    10728 1
   11168    10667    10729 1
   11169    10668    10669 1
   11170    10668    10730 1
   11171    10668    10731 1
   11172    10669    10670 1
   11173    10669    10732 1
   11174    10669    10733 1
   11175    10670    10734 1
   11176    10670    10735 1
   11177    10670    10736 1
   11178    10737    10738 1
   11179    10737    10744 1
   11180    10737    10776 1
   11181    10738    10739 1
   11182    10738    10742 1
   11183    10739    10740 1
   11184    10739    10743 1
   11185    10740    10741 1
   11186    10741    10742 1
   11187    10741    10752 1
   11188    10742    10748 1
   11189    10743    10744 1
   11190    10743    10747 1
   11191    10744    10745 1
   11192    10745    10746 1
   11193    10745    10749 1
   11194    10746    10747 1
   11195    10750    10751 1
   11196    10750    10758 1
   11197    10751    10752 1
   11198    10751    10759 1
   11199    10752    10753 1
   11200    10753    10754 1
   11201    10753    10757 1
   11202    10754    10755 1
   11203    10755    10756 1
   11204    10756    10757 1
   11205    10757    10758 1
   11206    10758    10868 1
   11207    10760    10761 1
   11208    10760    10793 1
   11209    10760    10794 1
   11210    10760    10795 1
   11211    10761    10762 1
   11212    10761    10796 1
   11213    10761    10797 1
   11214    10762    10763 1
   11215    10762    10798 1
   11216    10762    10799 1
   11217    10763    10764 1
   11218    10763    10800 1
   11219    10763    10801 1
   11220    10764    10765 1
   11221    10764    10802 1
   11222    10764    10803 1
   11223    10765    10766 1
   11224    10765    10804 1
   11225    10765    10805 1
   11226    10766    10767 1
   11227    10766    10806 1
   11228    10766    10807 1
   11229    10767    10768 1
   11230    10767    10808 1
   11231    10767    10809 1
   11232    10768    10769 1
   11233    10768    10775 1
   11234    10768    10810 1
   11235    10769    10770 1
   11236    10769    10811 1
   11237    10769    10812 1
   11238    10770    10771 1
   11239    10770    10813 1
   11240    10770    10814 1
   11241    10771    10772 1
   11242    10771    10815 1
   11243    10771    10816 1
   11244    10772    10773 1
   11245    10772    10817 1
   11246    10772    10818 1
   11247    10773    10774 1
   11248    10773    10819 1
   11249    10773    10820 1
   11250    10774    10821 1
   11251    10774    10822 1
   11252    10774    10823 1
   11253    10775    10776 1
   11254    10775    10824 1
   11255    10775    10825 1
   11256    10776    10777 1
   11257    10777    10778 1
   11258    10777    10826 1
   11259    10777    10827 1
   11260    10778    10779 1
   11261    10778    10785 1
   11262    10778    10828 1
   11263    10779    10780 1
   11264    10779    10829 1
   11265    10779    10830 1
   11266    10780    10781 1
   11267    10780    10831 1
   11268    10780    10832 1
   11269    10781    10782 1
   11270    10781    10833 1
   11271    10781    10834 1
   11272    10782    10783 1
   11273    10782    10835 1
   11274    10782    10836 1
   11275    10783    10784 1
   11276    10783    10837 1
   11277    10783    10838 1
   11278    10784    10839 1
   11279    10784    10840 1
   11280    10784    10841 1
   11281    10785    10786 1
   11282    10785    10842 1
   11283    10785    10843 1
   11284    10786    10787 1
   11285    10786    10844 1
   11286    10786    10845 1
   11287    10787    10788 1
   11288    10787    10846 1
   11289    10787    10847 1
   11290    10788    10789 1
   11291    10788    10848 1
   11292    10788    10849 1
   11293    10789    10790 1
   11294    10789    10850 1
   11295    10789    10851 1
   11296    10790    10791 1
   11297    10790    10852 1
   11298    10790    10853 1
   11299    10791    10792 1
   11300    10791    10854 1
   11301    10791    10855 1
   11302    10792    10856 1
   11303    10792    10857 1
   11304    10792    10858 1
   11305    10859    10860 1
   11306    10859    10866 1
   11307    10859    10898 1
   11308    10860    10861 1
   11309    10860    10864 1
   11310    10861    10862 1
   11311    10861    10865 1
   11312    10862    10863 1
   11313    10863    10864 1
   11314    10863    10874 1
   11315    10864    10870 1
   11316    10865    10866 1
   11317    10865    10869 1
   11318    10866    10867 1
   11319    10867    10868 1
   11320    10867    10871 1
   11321    10868    10869 1
   11322    10872    10873 1
   11323    10872    10880 1
   11324    10873    10874 1
   11325    10873    10881 1
   11326    10874    10875 1
   11327    10875    10876 1
   11328    10875    10879 1
   11329    10876    10877 1
   11330    10877    10878 1
   11331    10878    10879 1
   11332    10879    10880 1
   11333    10880    10990 1
   11334    10882    10883 1
   11335    10882    10915 1
   11336    10882    10916 1
   11337    10882    10917 1
   11338    10883    10884 1
   11339    10883    10918 1
   11340    10883    10919 1
   11341    10884    10885 1
   11342    10884    10920 1
   11343    10884    10921 1
   11344    10885    10886 1
   11345    10885    10922 1
   11346    10885    10923 1
   11347    10886    10887 1
   11348    10886    10924 1
   11349    10886    10925 1
   11350    10887    10888 1
   11351    10887    10926 1
   11352    10887    10927 1
   11353    10888    10889 1
   11354    10888    10928 1
   11355    10888    10929 1
   11356    10889    10890 1
   11357    10889    10930 1
   11358    10889    10931 1
   11359    10890    10891 1
   11360    10890    10897 1
   11361    10890    10932 1
   11362    10891    10892 1
   11363    10891    10933 1
   11364    10891    10934 1
   11365    10892    10893 1
   11366    10892    10935 1
   11367    10892    10936 1
   11368    10893    10894 1
   11369    10893    10937 1
   11370    10893    10938 1
   11371    10894    10895 1
   11372    10894    10939 1
   11373    10894    10940 1
   11374    10895    10896 1
   11375    10895    10941 1
   11376    10895    10942 1
   11377    10896    10943 1
   11378    10896    10944 1
   11379    10896    10945 1
   11380    10897    10898 1
   11381    10897    10946 1
   11382    10897    10947 1
   11383    10898    10899 1
   11384    10899    10900 1
   11385    10899    10948 1
   11386    10899    10949 1
   11387    10900    10901 1
   11388    10900    10907 1
   11389    10900    10950 1
   11390    10901    10902 1
   11391    10901    10951 1
   11392    10901    10952 1
   11393    10902    10903 1
   11394    10902    10953 1
   11395    10902    10954 1
   11396    10903    10904 1
   11397    10903    10955 1
   11398    10903    10956 1
   11399    10904    10905 1
   11400    10904    10957 1
   11401    10904    10958 1
   11402    10905    10906 1
   11403    10905    10959 1
   11404    10905    10960 1
   11405    10906    10961 1
   11406    10906    10962 1
   11407    10906    10963 1
   11408    10907    10908 1
   11409    10907    10964 1
   11410    10907    10965 1
   11411    10908    10909 1
   11412    10908    10966 1
   11413    10908    10967 1
   11414    10909    10910 1
   11415    10909    10968 1
   11416    10909    10969 1
   11417    10910    10911 1
   11418    10910    10970 1
   11419    10910    10971 1
   11420    10911    10912 1
   11421    10911    10972 1
   11422    10911    10973 1
   11423    10912    10913 1
   11424    10912    10974 1
   11425    10912    10975 1
   11426    10913    10914 1
   11427    10913    10976 1
   11428    10913    10977 1
   11429    10914    10978 1
   11430    10914    10979 1
   11431    10914    10980 1
   11432    10981    10982 1
   11433    10981    10988 1
   11434    10981    11020 1
   11435    10982    10983 1
   11436    10982    10986 1
   11437    10983    10984 1
   11438    10983    10987 1
   11439    10984    10985 1
   11440    10985    10986 1
   11441    10985    10996 1
   11442    10986    10992 1
   11443    10987    10988 1
   11444    10987    10991 1
   11445    10988    10989 1
   11446    10989    10990 1
   11447    10989    10993 1
   11448    10990    10991 1
   11449    10994    10995 1
   11450    10994    11002 1
   11451    10995    10996 1
   11452    10995    11003 1
   11453    10996    10997 1
   11454    10997    10998 1
   11455    10997    11001 1
   11456    10998    10999 1
   11457    10999    11000 1
   11458    11000    11001 1
   11459    11001    11002 1
   11460    11002    11112 1
   11461    11004    11005 1
   11462    11004    11037 1
   11463    11004    11038 1
   11464    11004    11039 1
   11465    11005    11006 1
   11466    11005    11040 1
   11467    11005    11041 1
   11468    11006    11007 1
   11469    11006    11042 1
   11470    11006    11043 1
   11471    11007    11008 1
   11472    11007    11044 1
   11473    11007    11045 1
   11474    11008    11009 1
   11475    11008    11046 1
   11476    11008    11047 1
   11477    11009    11010 1
   11478    11009    11048 1
   11479    11009    11049 1
   11480    11010    11011 1
   11481    11010    11050 1
   11482    11010    11051 1
   11483    11011    11012 1
   11484    11011    11052 1
   11485    11011    11053 1
   11486    11012    11013 1
   11487    11012    11019 1
   11488    11012    11054 1
   11489    11013    11014 1
   11490    11013    11055 1
   11491    11013    11056 1
   11492    11014    11015 1
   11493    11014    11057 1
   11494    11014    11058 1
   11495    11015    11016 1
   11496    11015    11059 1
   11497    11015    11060 1
   11498    11016    11017 1
   11499    11016    11061 1
   11500    11016    11062 1
   11501    11017    11018 1
   11502    11017    11063 1
   11503    11017    11064 1
   11504    11018    11065 1
   11505    11018    11066 1
   11506    11018    11067 1
   11507    11019    11020 1
   11508    11019    11068 1
   11509    11019    11069 1
   11510    11020    11021 1
   11511    11021    11022 1
   11512    11021    11070 1
   11513    11021    11071 1
   11514    11022    11023 1
   11515    11022    11029 1
   11516    11022    11072 1
   11517    11023    11024 1
   11518    11023    11073 1
   11519    11023    11074 1
   11520    11024    11025 1
   11521    11024    11075 1
   11522    11024    11076 1
   11523    11025    11026 1
   11524    11025    11077 1
   11525    11025    11078 1
   11526    11026    11027 1
   11527    11026    11079 1
   11528    11026    11080 1
   11529    11027    11028 1
   11530    11027    11081 1
   11531    11027    11082 1
   11532    11028    11083 1
   11533    11028    11084 1
   11534    11028    11085 1
   11535    11029    11030 1
   11536    11029    11086 1
   11537    11029    11087 1
   11538    11030    11031 1
   11539    11030    11088 1
   11540    11030    11089 1
   11541    11031    11032 1
   11542    11031    11090 1
   11543    11031    11091 1
   11544    11032    11033 1
   11545    11032    11092 1
   11546    11032    11093 1
   11547    11033    11034 1
   11548    11033    11094 1
   11549    11033    11095 1
   11550    11034    11035 1
   11551    11034    11096 1
   11552    11034    11097 1
   11553    11035    11036 1
   11554    11035    11098 1
   11555    11035    11099 1
   11556    11036    11100 1
   11557    11036    11101 1
   11558    11036    11102 1
   11559    11103    11104 1
   11560    11103    11110 1
   11561    11103    11142 1
   11562    11104    11105 1
   11563    11104    11108 1
   11564    11105    11106 1
   11565    11105    11109 1
   11566    11106    11107 1
   11567    11107    11108 1
   11568    11107    11118 1
   11569    11108    11114 1
   11570    11109    11110 1
   11571    11109    11113 1
   11572    11110    11111 1
   11573    11111    11112 1
   11574    11111    11115 1
   11575    11112    11113 1
   11576    11116    11117 1
   11577    11116    11124 1
   11578    11117    11118 1
   11579    11117    11125 1
   11580    11118    11119 1
   11581    11119    11120 1
   11582    11119    11123 1
   11583    11120    11121 1
   11584    11121    11122 1
   11585    11122    11123 1
   11586    11123    11124 1
   11587    11124    11234 1
   11588    11126    11127 1
   11589    11126    11159 1
   11590    11126    11160 1
   11591    11126    11161 1
   11592    11127    11128 1
   11593    11127    11162 1
   11594    11127    11163 1
   11595    11128    11129 1
   11596    11128    11164 1
   11597    11128    11165 1
   11598    11129    11130 1
   11599    11129    11166 1
   11600    11129    11167 1
   11601    11130    11131 1
   11602    11130    11168 1
   11603    11130    11169 1
   11604    11131    11132 1
   11605    11131    11170 1
   11606    11131    11171 1
   11607    11132    11133 1
   11608    11132    11172 1
   11609    11132    11173 1
   11610    11133    11134 1
   11611    11133    11174 1
   11612    11133    11175 1
   11613    11134    11135 1
   11614    11134    11141 1
   11615    11134    11176 1
   11616    11135    11136 1
   11617    11135    11177 1
   11618    11135    11178 1
   11619    11136    11137 1
   11620    11136    11179 1
   11621    11136    11180 1
   11622    11137    11138 1
   11623    11137    11181 1
   11624    11137    11182 1
   11625    11138    11139 1
   11626    11138    11183 1
   11627    11138    11184 1
   11628    11139    11140 1
   11629    11139    11185 1
   11630    11139    11186 1
   11631    11140    11187 1
   11632    11140    11188 1
   11633    11140    11189 1
   11634    11141    11142 1
   11635    11141    11190 1
   11636    11141    11191 1
   11637    11142    11143 1
   11638    11143    11144 1
   11639    11143    11192 1
   11640    11143    11193 1
   11641    11144    11145 1
   11642    11144    11151 1
   11643    11144    11194 1
   11644    11145    11146 1
   11645    11145    11195 1
   11646    11145    11196 1
   11647    11146    11147 1
   11648    11146    11197 1
   11649    11146    11198 1
   11650    11147    11148 1
   11651    11147    11199 1
   11652    11147    11200 1
   11653    11148    11149 1
   11654    11148    11201 1
   11655    11148    11202 1
   11656    11149    11150 1
   11657    11149    11203 1
   11658    11149    11204 1
   11659    11150    11205 1
   11660    11150    11206 1
   11661    11150    11207 1
   11662    11151    11152 1
   11663    11151    11208 1
   11664    11151    11209 1
   11665    11152    11153 1
   11666    11152    11210 1
   11667    11152    11211 1
   11668    11153    11154 1
   11669    11153    11212 1
   11670    11153    11213 1
   11671    11154    11155 1
   11672    11154    11214 1
   11673    11154    11215 1
   11674    11155    11156 1
   11675    11155    11216 1
   11676    11155    11217 1
   11677    11156    11157 1
   11678    11156    11218 1
   11679    11156    11219 1
   11680    11157    11158 1
   11681    11157    11220 1
   11682    11157    11221 1
   11683    11158    11222 1
   11684    11158    11223 1
   11685    11158    11224 1
   11686    11225    11226 1
   11687    11225    11232 1
   11688    11225    11264 1
   11689    11226    11227 1
   11690    11226    11230 1
   11691    11227    11228 1
   11692    11227    11231 1
   11693    11228    11229 1
   11694    11229    11230 1
   11695    11229    11240 1
   11696    11230    11236 1
   11697    11231    11232 1
   11698    11231    11235 1
   11699    11232    11233 1
   11700    11233    11234 1
   11701    11233    11237 1
   11702    11234    11235 1
   11703    11238    11239 1
   11704    11238    11246 1
   11705    11239    11240 1
   11706    11239    11247 1
   11707    11240    11241 1
   11708    11241    11242 1
   11709    11241    11245 1
   11710    11242    11243 1
   11711    11243    11244 1
   11712    11244    11245 1
   11713    11245    11246 1
   11714    11246    11356 1
   11715    11248    11249 1
   11716    11248    11281 1
   11717    11248    11282 1
   11718    11248    11283 1
   11719    11249    11250 1
   11720    11249    11284 1
   11721    11249    11285 1
   11722    11250    11251 1
   11723    11250    11286 1
   11724    11250    11287 1
   11725    11251    11252 1
   11726    11251    11288 1
   11727    11251    11289 1
   11728    11252    11253 1
   11729    11252    11290 1
   11730    11252    11291 1
   11731    11253    11254 1
   11732    11253    11292 1
   11733    11253    11293 1
   11734    11254    11255 1
   11735    11254    11294 1
   11736    11254    11295 1
   11737    11255    11256 1
   11738    11255    11296 1
   11739    11255    11297 1
   11740    11256    11257 1
   11741    11256    11263 1
   11742    11256    11298 1
   11743    11257    11258 1
   11744    11257    11299 1
   11745    11257    11300 1
   11746    11258    11259 1
   11747    11258    11301 1
   11748    11258    11302 1
   11749    11259    11260 1
   11750    11259    11303 1
   11751    11259    11304 1
   11752    11260    11261 1
   11753    11260    11305 1
   11754    11260    11306 1
   11755    11261    11262 1
   11756    11261    11307 1
   11757    11261    11308 1
   11758    11262    11309 1
   11759    11262    11310 1
   11760    11262    11311 1
   11761    11263    11264 1
   11762    11263    11312 1
   11763    11263    11313 1
   11764    11264    11265 1
   11765    11265    11266 1
   11766    11265    11314 1
   11767    11265    11315 1
   11768    11266    11267 1
   11769    11266    11273 1
   11770    11266    11316 1
   11771    11267    11268 1
   11772    11267    11317 1
   11773    11267    11318 1
   11774    11268    11269 1
   11775    11268    11319 1
   11776    11268    11320 1
   11777    11269    11270 1
   11778    11269    11321 1
   11779    11269    11322 1
   11780    11270    11271 1
   11781    11270    11323 1
   11782    11270    11324 1
   11783    11271    11272 1
   11784    11271    11325 1
   11785    11271    11326 1
   11786    11272    11327 1
   11787    11272    11328 1
   11788    11272    11329 1
   11789    11273    11274 1
   11790    11273    11330 1
   11791    11273    11331 1
   11792    11274    11275 1
   11793    11274    11332 1
   11794    11274    11333 1
   11795    11275    11276 1
   11796    11275    11334 1
   11797    11275    11335 1
   11798    11276    11277 1
   11799    11276    11336 1
   11800    11276    11337 1
   11801    11277    11278 1
   11802    11277    11338 1
   11803    11277    11339 1
   11804    11278    11279 1
   11805    11278    11340 1
   11806    11278    11341 1
   11807    11279    11280 1
   11808    11279    11342 1
   11809    11279    11343 1
   11810    11280    11344 1
   11811    11280    11345 1
   11812    11280    11346 1
   11813    11347    11348 1
   11814    11347    11354 1
   11815    11347    11386 1
   11816    11348    11349 1
   11817    11348    11352 1
   11818    11349    11350 1
   11819    11349    11353 1
   11820    11350    11351 1
   11821    11351    11352 1
   11822    11351    11362 1
   11823    11352    11358 1
   11824    11353    11354 1
   11825    11353    11357 1
   11826    11354    11355 1
   11827    11355    11356 1
   11828    11355    11359 1
   11829    11356    11357 1
   11830    11360    11361 1
   11831    11360    11368 1
   11832    11361    11362 1
   11833    11361    11369 1
   11834    11362    11363 1
   11835    11363    11364 1
   11836    11363    11367 1
   11837    11364    11365 1
   11838    11365    11366 1
   11839    11366    11367 1
   11840    11367    11368 1
   11841    11368    11478 1
   11842    11370    11371 1
   11843    11370    11403 1
   11844    11370    11404 1
   11845    11370    11405 1
   11846    11371    11372 1
   11847    11371    11406 1
   11848    11371    11407 1
   11849    11372    11373 1
   11850    11372    11408 1
   11851    11372    11409 1
   11852    11373    11374 1
   11853    11373    11410 1
   11854    11373    11411 1
   11855    11374    11375 1
   11856    11374    11412 1
   11857    11374    11413 1
   11858    11375    11376 1
   11859    11375    11414 1
   11860    11375    11415 1
   11861    11376    11377 1
   11862    11376    11416 1
   11863    11376    11417 1
   11864    11377    11378 1
   11865    11377    11418 1
   11866    11377    11419 1
   11867    11378    11379 1
   11868    11378    11385 1
   11869    11378    11420 1
   11870    11379    11380 1
   11871    11379    11421 1
   11872    11379    11422 1
   11873    11380    11381 1
   11874    11380    11423 1
   11875    11380    11424 1
   11876    11381    11382 1
   11877    11381    11425 1
   11878    11381    11426 1
   11879    11382    11383 1
   11880    11382    11427 1
   11881    11382    11428 1
   11882    11383    11384 1
   11883    11383    11429 1
   11884    11383    11430 1
   11885    11384    11431 1
   11886    11384    11432 1
   11887    11384    11433 1
   11888    11385    11386 1
   11889    11385    11434 1
   11890    11385    11435 1
   11891    11386    11387 1
   11892    11387    11388 1
   11893    11387    11436 1
   11894    11387    11437 1
   11895    11388    11389 1
   11896    11388    11395 1
   11897    11388    11438 1
   11898    11389    11390 1
   11899    11389    11439 1
   11900    11389    11440 1
   11901    11390    11391 1
   11902    11390    11441 1
   11903    11390    11442 1
   11904    11391    11392 1
   11905    11391    11443 1
   11906    11391    11444 1
   11907    11392    11393 1
   11908    11392    11445 1
   11909    11392    11446 1
   11910    11393    11394 1
   11911    11393    11447 1
   11912    11393    11448 1
   11913    11394    11449 1
   11914    11394    11450 1
   11915    11394    11451 1
   11916    11395    11396 1
   11917    11395    11452 1
   11918    11395    11453 1
   11919    11396    11397 1
   11920    11396    11454 1
   11921    11396    11455 1
   11922    11397    11398 1
   11923    11397    11456 1
   11924    11397    11457 1
   11925    11398    11399 1
   11926    11398    11458 1
   11927    11398    11459 1
   11928    11399    11400 1
   11929    11399    11460 1
   11930    11399    11461 1
   11931    11400    11401 1
   11932    11400    11462 1
   11933    11400    11463 1
   11934    11401    11402 1
   11935    11401    11464 1
   11936    11401    11465 1
   11937    11402    11466 1
   11938    11402    11467 1
   11939    11402    11468 1
   11940    11469    11470 1
   11941    11469    11476 1
   11942    11469    11508 1
   11943    11470    11471 1
   11944    11470    11474 1
   11945    11471    11472 1
   11946    11471    11475 1
   11947    11472    11473 1
   11948    11473    11474 1
   11949    11473    11484 1
   11950    11474    11480 1
   11951    11475    11476 1
   11952    11475    11479 1
   11953    11476    11477 1
   11954    11477    11478 1
   11955    11477    11481 1
   11956    11478    11479 1
   11957    11482    11483 1
   11958    11482    11490 1
   11959    11483    11484 1
   11960    11483    11491 1
   11961    11484    11485 1
   11962    11485    11486 1
   11963    11485    11489 1
   11964    11486    11487 1
   11965    11487    11488 1
   11966    11488    11489 1
   11967    11489    11490 1
   11968    11490    11600 1
   11969    11492    11493 1
   11970    11492    11525 1
   11971    11492    11526 1
   11972    11492    11527 1
   11973    11493    11494 1
   11974    11493    11528 1
   11975    11493    11529 1
   11976    11494    11495 1
   11977    11494    11530 1
   11978    11494    11531 1
   11979    11495    11496 1
   11980    11495    11532 1
   11981    11495    11533 1
   11982    11496    11497 1
   11983    11496    11534 1
   11984    11496    11535 1
   11985    11497    11498 1
   11986    11497    11536 1
   11987    11497    11537 1
   11988    11498    11499 1
   11989    11498    11538 1
   11990    11498    11539 1
   11991    11499    11500 1
   11992    11499    11540 1
   11993    11499    11541 1
   11994    11500    11501 1
   11995    11500    11507 1
   11996    11500    11542 1
   11997    11501    11502 1
   11998    11501    11543 1
   11999    11501    11544 1
   12000    11502    11503 1
   12001    11502    11545 1
   12002    11502    11546 1
   12003    11503    11504 1
   12004    11503    11547 1
   12005    11503    11548 1
   12006    11504    11505 1
   12007    11504    11549 1
   12008    11504    11550 1
   12009    11505    11506 1
   12010    11505    11551 1
   12011    11505    11552 1
   12012    11506    11553 1
   12013    11506    11554 1
   12014    11506    11555 1
   12015    11507    11508 1
   12016    11507    11556 1
   12017    11507    11557 1
   12018    11508    11509 1
   12019    11509    11510 1
   12020    11509    11558 1
   12021    11509    11559 1
   12022    11510    11511 1
   12023    11510    11517 1
   12024    11510    11560 1
   12025    11511    11512 1
   12026    11511    11561 1
   12027    11511    11562 1
   12028    11512    11513 1
   12029    11512    11563 1
   12030    11512    11564 1
   12031    11513    11514 1
   12032    11513    11565 1
   12033    11513    11566 1
   12034    11514    11515 1
   12035    11514    11567 1
   12036    11514    11568 1
   12037    11515    11516 1
   12038    11515    11569 1
   12039    11515    11570 1
   12040    11516    11571 1
   12041    11516    11572 1
   12042    11516    11573 1
   12043    11517    11518 1
   12044    11517    11574 1
   12045    11517    11575 1
   12046    11518    11519 1
   12047    11518    11576 1
   12048    11518    11577 1
   12049    11519    11520 1
   12050    11519    11578 1
   12051    11519    11579 1
   12052    11520    11521 1
   12053    11520    11580 1
   12054    11520    11581 1
   12055    11521    11522 1
   12056    11521    11582 1
   12057    11521    11583 1
   12058    11522    11523 1
   12059    11522    11584 1
   12060    11522    11585 1
   12061    11523    11524 1
   12062    11523    11586 1
   12063    11523    11587 1
   12064    11524    11588 1
   12065    11524    11589 1
   12066    11524    11590 1
   12067    11591    11592 1
   12068    11591    11598 1
   12069    11591    11630 1
   12070    11592    11593 1
   12071    11592    11596 1
   12072    11593    11594 1
   12073    11593    11597 1
   12074    11594    11595 1
   12075    11595    11596 1
   12076    11595    11606 1
   12077    11596    11602 1
   12078    11597    11598 1
   12079    11597    11601 1
   12080    11598    11599 1
   12081    11599    11600 1
   12082    11599    11603 1
   12083    11600    11601 1
   12084    11604    11605 1
   12085    11604    11612 1
   12086    11605    11606 1
   12087    11605    11613 1
   12088    11606    11607 1
   12089    11607    11608 1
   12090    11607    11611 1
   12091    11608    11609 1
   12092    11609    11610 1
   12093    11610    11611 1
   12094    11611    11612 1
   12095    11612    11722 1
   12096    11614    11615 1
   12097    11614    11647 1
   12098    11614    11648 1
   12099    11614    11649 1
   12100    11615    11616 1
   12101    11615    11650 1
   12102    11615    11651 1
   12103    11616    11617 1
   12104    11616    11652 1
   12105    11616    11653 1
   12106    11617    11618 1
   12107    11617    11654 1
   12108    11617    11655 1
   12109    11618    11619 1
   12110    11618    11656 1
   12111    11618    11657 1
   12112    11619    11620 1
   12113    11619    11658 1
   12114    11619    11659 1
   12115    11620    11621 1
   12116    11620    11660 1
   12117    11620    11661 1
   12118    11621    11622 1
   12119    11621    11662 1
   12120    11621    11663 1
   12121    11622    11623 1
   12122    11622    11629 1
   12123    11622    11664 1
   12124    11623    11624 1
   12125    11623    11665 1
   12126    11623    11666 1
   12127    11624    11625 1
   12128    11624    11667 1
   12129    11624    11668 1
   12130    11625    11626 1
   12131    11625    11669 1
   12132    11625    11670 1
   12133    11626    11627 1
   12134    11626    11671 1
   12135    11626    11672 1
   12136    11627    11628 1
   12137    11627    11673 1
   12138    11627    11674 1
   12139    11628    11675 1
   12140    11628    11676 1
   12141    11628    11677 1
   12142    11629    11630 1
   12143    11629    11678 1
   12144    11629    11679 1
   12145    11630    11631 1
   12146    11631    11632 1
   12147    11631    11680 1
   12148    11631    11681 1
   12149    11632    11633 1
   12150    11632    11639 1
   12151    11632    11682 1
   12152    11633    11634 1
   12153    11633    11683 1
   12154    11633    11684 1
   12155    11634    11635 1
   12156    11634    11685 1
   12157    11634    11686 1
   12158    11635    11636 1
   12159    11635    11687 1
   12160    11635    11688 1
   12161    11636    11637 1
   12162    11636    11689 1
   12163    11636    11690 1
   12164    11637    11638 1
   12165    11637    11691 1
   12166    11637    11692 1
   12167    11638    11693 1
   12168    11638    11694 1
   12169    11638    11695 1
   12170    11639    11640 1
   12171    11639    11696 1
   12172    11639    11697 1
   12173    11640    11641 1
   12174    11640    11698 1
   12175    11640    11699 1
   12176    11641    11642 1
   12177    11641    11700 1
   12178    11641    11701 1
   12179    11642    11643 1
   12180    11642    11702 1
   12181    11642    11703 1
   12182    11643    11644 1
   12183    11643    11704 1
   12184    11643    11705 1
   12185    11644    11645 1
   12186    11644    11706 1
   12187    11644    11707 1
   12188    11645    11646 1
   12189    11645    11708 1
   12190    11645    11709 1
   12191    11646    11710 1
   12192    11646    11711 1
   12193    11646    11712 1
   12194    11713    11714 1
   12195    11713    11720 1
   12196    11713    11752 1
   12197    11714    11715 1
   12198    11714    11718 1
   12199    11715    11716 1
   12200    11715    11719 1
   12201    11716    11717 1
   12202    11717    11718 1
   12203    11717    11728 1
   12204    11718    11724 1
   12205    11719    11720 1
   12206    11719    11723 1
   12207    11720    11721 1
   12208    11721    11722 1
   12209    11721    11725 1
   12210    11722    11723 1
   12211    11726    11727 1
   12212    11726    11734 1
   12213    11727    11728 1
   12214    11727    11735 1
   12215    11728    11729 1
   12216    11729    11730 1
   12217    11729    11733 1
   12218    11730    11731 1
   12219    11731    11732 1
   12220    11732    11733 1
   12221    11733    11734 1
   12222    11734    11844 1
   12223    11736    11737 1
   12224    11736    11769 1
   12225    11736    11770 1
   12226    11736    11771 1
   12227    11737    11738 1
   12228    11737    11772 1
   12229    11737    11773 1
   12230    11738    11739 1
   12231    11738    11774 1
   12232    11738    11775 1
   12233    11739    11740 1
   12234    11739    11776 1
   12235    11739    11777 1
   12236    11740    11741 1
   12237    11740    11778 1
   12238    11740    11779 1
   12239    11741    11742 1
   12240    11741    11780 1
   12241    11741    11781 1
   12242    11742    11743 1
   12243    11742    11782 1
   12244    11742    11783 1
   12245    11743    11744 1
   12246    11743    11784 1
   12247    11743    11785 1
   12248    11744    11745 1
   12249    11744    11751 1
   12250    11744    11786 1
   12251    11745    11746 1
   12252    11745    11787 1
   12253    11745    11788 1
   12254    11746    11747 1
   12255    11746    11789 1
   12256    11746    11790 1
   12257    11747    11748 1
   12258    11747    11791 1
   12259    11747    11792 1
   12260    11748    11749 1
   12261    11748    11793 1
   12262    11748    11794 1
   12263    11749    11750 1
   12264    11749    11795 1
   12265    11749    11796 1
   12266    11750    11797 1
   12267    11750    11798 1
   12268    11750    11799 1
   12269    11751    11752 1
   12270    11751    11800 1
   12271    11751    11801 1
   12272    11752    11753 1
   12273    11753    11754 1
   12274    11753    11802 1
   12275    11753    11803 1
   12276    11754    11755 1
   12277    11754    11761 1
   12278    11754    11804 1
   12279    11755    11756 1
   12280    11755    11805 1
   12281    11755    11806 1
   12282    11756    11757 1
   12283    11756    11807 1
   12284    11756    11808 1
   12285    11757    11758 1
   12286    11757    11809 1
   12287    11757    11810 1
   12288    11758    11759 1
   12289    11758    11811 1
   12290    11758    11812 1
   12291    11759    11760 1
   12292    11759    11813 1
   12293    11759    11814 1
   12294    11760    11815 1
   12295    11760    11816 1
   12296    11760    11817 1
   12297    11761    11762 1
   12298    11761    11818 1
   12299    11761    11819 1
   12300    11762    11763 1
   12301    11762    11820 1
   12302    11762    11821 1
   12303    11763    11764 1
   12304    11763    11822 1
   12305    11763    11823 1
   12306    11764    11765 1
   12307    11764    11824 1
   12308    11764    11825 1
   12309    11765    11766 1
   12310    11765    11826 1
   12311    11765    11827 1
   12312    11766    11767 1
   12313    11766    11828 1
   12314    11766    11829 1
   12315    11767    11768 1
   12316    11767    11830 1
   12317    11767    11831 1
   12318    11768    11832 1
   12319    11768    11833 1
   12320    11768    11834 1
   12321    11835    11836 1
   12322    11835    11842 1
   12323    11835    11874 1
   12324    11836    11837 1
   12325    11836    11840 1
   12326    11837    11838 1
   12327    11837    11841 1
   12328    11838    11839 1
   12329    11839    11840 1
   12330    11839    11850 1
   12331    11840    11846 1
   12332    11841    11842 1
   12333    11841    11845 1
   12334    11842    11843 1
   12335    11843    11844 1
   12336    11843    11847 1
   12337    11844    11845 1
   12338    11848    11849 1
   12339    11848    11856 1
   12340    11849    11850 1
   12341    11849    11857 1
   12342    11850    11851 1
   12343    11851    11852 1
   12344    11851    11855 1
   12345    11852    11853 1
   12346    11853    11854 1
   12347    11854    11855 1
   12348    11855    11856 1
   12349    11856    11966 1
   12350    11858    11859 1
   12351    11858    11891 1
   12352    11858    11892 1
   12353    11858    11893 1
   12354    11859    11860 1
   12355    11859    11894 1
   12356    11859    11895 1
   12357    11860    11861 1
   12358    11860    11896 1
   12359    11860    11897 1
   12360    11861    11862 1
   12361    11861    11898 1
   12362    11861    11899 1
   12363    11862    11863 1
   12364    11862    11900 1
   12365    11862    11901 1
   12366    11863    11864 1
   12367    11863    11902 1
   12368    11863    11903 1
   12369    11864    11865 1
   12370    11864    11904 1
   12371    11864    11905 1
   12372    11865    11866 1
   12373    11865    11906 1
   12374    11865    11907 1
   12375    11866    11867 1
   12376    11866    11873 1
   12377    11866    11908 1
   12378    11867    11868 1
   12379    11867    11909 1
   12380    11867    11910 1
   12381    11868    11869 1
   12382    11868    11911 1
   12383    11868    11912 1
   12384    11869    11870 1
   12385    11869    11913 1
   12386    11869    11914 1
   12387    11870    11871 1
   12388    11870    11915 1
   12389    11870    11916 1
   12390    11871    11872 1
   12391    11871    11917 1
   12392    11871    11918 1
   12393    11872    11919 1
   12394    11872    11920 1
   12395    11872    11921 1
   12396    11873    11874 1
   12397    11873    11922 1
   12398    11873    11923 1
   12399    11874    11875 1
   12400    11875    11876 1
   12401    11875    11924 1
   12402    11875    11925 1
   12403    11876    11877 1
   12404    11876    11883 1
   12405    11876    11926 1
   12406    11877    11878 1
   12407    11877    11927 1
   12408    11877    11928 1
   12409    11878    11879 1
   12410    11878    11929 1
   12411    11878    11930 1
   12412    11879    11880 1
   12413    11879    11931 1
   12414    11879    11932 1
   12415    11880    11881 1
   12416    11880    11933 1
   12417    11880    11934 1
   12418    11881    11882 1
   12419    11881    11935 1
   12420    11881    11936 1
   12421    11882    11937 1
   12422    11882    11938 1
   12423    11882    11939 1
   12424    11883    11884 1
   12425    11883    11940 1
   12426    11883    11941 1
   12427    11884    11885 1
   12428    11884    11942 1
   12429    11884    11943 1
   12430    11885    11886 1
   12431    11885    11944 1
   12432    11885    11945 1
   12433    11886    11887 1
   12434    11886    11946 1
   12435    11886    11947 1
   12436    11887    11888 1
   12437    11887    11948 1
   12438    11887    11949 1
   12439    11888    11889 1
   12440    11888    11950 1
   12441    11888    11951 1
   12442    11889    11890 1
   12443    11889    11952 1
   12444    11889    11953 1
   12445    11890    11954 1
   12446    11890    11955 1
   12447    11890    11956 1
   12448    11957    11958 1
   12449    11957    11964 1
   12450    11957    11996 1
   12451    11958    11959 1
   12452    11958    11962 1
   12453    11959    11960 1
   12454    11959    11963 1
   12455    11960    11961 1
   12456    11961    11962 1
   12457    11961    11972 1
   12458    11962    11968 1
   12459    11963    11964 1
   12460    11963    11967 1
   12461    11964    11965 1
   12462    11965    11966 1
   12463    11965    11969 1
   12464    11966    11967 1
   12465    11970    11971 1
   12466    11970    11978 1
   12467    11971    11972 1
   12468    11971    11979 1
   12469    11972    11973 1
   12470    11973    11974 1
   12471    11973    11977 1
   12472    11974    11975 1
   12473    11975    11976 1
   12474    11976    11977 1
   12475    11977    11978 1
   12476    11978    12088 1
   12477    11980    11981 1
   12478    11980    12013 1
   12479    11980    12014 1
   12480    11980    12015 1
   12481    11981    11982 1
   12482    11981    12016 1
   12483    11981    12017 1
   12484    11982    11983 1
   12485    11982    12018 1
   12486    11982    12019 1
   12487    11983    11984 1
   12488    11983    12020 1
   12489    11983    12021 1
   12490    11984    11985 1
   12491    11984    12022 1
   12492    11984    12023 1
   12493    11985    11986 1
   12494    11985    12024 1
   12495    11985    12025 1
   12496    11986    11987 1
   12497    11986    12026 1
   12498    11986    12027 1
   12499    11987    11988 1
   12500    11987    12028 1
   12501    11987    12029 1
   12502    11988    11989 1
   12503    11988    11995 1
   12504    11988    12030 1
   12505    11989    11990 1
   12506    11989    12031 1
   12507    11989    12032 1
   12508    11990    11991 1
   12509    11990    12033 1
   12510    11990    12034 1
   12511    11991    11992 1
   12512    11991    12035 1
   12513    11991    12036 1
   12514    11992    11993 1
   12515    11992    12037 1
   12516    11992    12038 1
   12517    11993    11994 1
   12518    11993    12039 1
   12519    11993    12040 1
   12520    11994    12041 1
   12521    11994    12042 1
   12522    11994    12043 1
   12523    11995    11996 1
   12524    11995    12044 1
   12525    11995    12045 1
   12526    11996    11997 1
   12527    11997    11998 1
   12528    11997    12046 1
   12529    11997    12047 1
   12530    11998    11999 1
   12531    11998    12005 1
   12532    11998    12048 1
   12533    11999    12000 1
   12534    11999    12049 1
   12535    11999    12050 1
   12536    12000    12001 1
   12537    12000    12051 1
   12538    12000    12052 1
   12539    12001    12002 1
   12540    12001    12053 1
   12541    12001    12054 1
   12542    12002    12003 1
   12543    12002    12055 1
   12544    12002    12056 1
   12545    12003    12004 1
   12546    12003    12057 1
   12547    12003    12058 1
   12548    12004    12059 1
   12549    12004    12060 1
   12550    12004    12061 1
   12551    12005    12006 1
   12552    12005    12062 1
   12553    12005    12063 1
   12554    12006    12007 1
   12555    12006    12064 1
   12556    12006    12065 1
   12557    12007    12008 1
   12558    12007    12066 1
   12559    12007    12067 1
   12560    12008    12009 1
   12561    12008    12068 1
   12562    12008    12069 1
   12563    12009    12010 1
   12564    12009    12070 1
   12565    12009    12071 1
   12566    12010    12011 1
   12567    12010    12072 1
   12568    12010    12073 1
   12569    12011    12012 1
   12570    12011    12074 1
   12571    12011    12075 1
   12572    12012    12076 1
   12573    12012    12077 1
   12574    12012    12078 1
   12575    12079    12080 1
   12576    12079    12086 1
   12577    12079    12118 1
   12578    12080    12081 1
   12579    12080    12084 1
   12580    12081    12082 1
   12581    12081    12085 1
   12582    12082    12083 1
   12583    12083    12084 1
   12584    12083    12094 1
   12585    12084    12090 1
   12586    12085    12086 1
   12587    12085    12089 1
   12588    12086    12087 1
   12589    12087    12088 1
   12590    12087    12091 1
   12591    12088    12089 1
   12592    12092    12093 1
   12593    12092    12100 1
   12594    12093    12094 1
   12595    12093    12101 1
   12596    12094    12095 1
   12597    12095    12096 1
   12598    12095    12099 1
   12599    12096    12097 1
   12600    12097    12098 1
   12601    12098    12099 1
   12602    12099    12100 1
   12603    12100    12210 1
   12604    12102    12103 1
   12605    12102    12135 1
   12606    12102    12136 1
   12607    12102    12137 1
   12608    12103    12104 1
   12609    12103    12138 1
   12610    12103    12139 1
   12611    12104    12105 1
   12612    12104    12140 1
   12613    12104    12141 1
   12614    12105    12106 1
   12615    12105    12142 1
   12616    12105    12143 1
   12617    12106    12107 1
   12618    12106    12144 1
   12619    12106    12145 1
   12620    12107    12108 1
   12621    12107    12146 1
   12622    12107    12147 1
   12623    12108    12109 1
   12624    12108    12148 1
   12625    12108    12149 1
   12626    12109    12110 1
   12627    12109    12150 1
   12628    12109    12151 1
   12629    12110    12111 1
   12630    12110    12117 1
   12631    12110    12152 1
   12632    12111    12112 1
   12633    12111    12153 1
   12634    12111    12154 1
   12635    12112    12113 1
   12636    12112    12155 1
   12637    12112    12156 1
   12638    12113    12114 1
   12639    12113    12157 1
   12640    12113    12158 1
   12641    12114    12115 1
   12642    12114    12159 1
   12643    12114    12160 1
   12644    12115    12116 1
   12645    12115    12161 1
   12646    12115    12162 1
   12647    12116    12163 1
   12648    12116    12164 1
   12649    12116    12165 1
   12650    12117    12118 1
   12651    12117    12166 1
   12652    12117    12167 1
   12653    12118    12119 1
   12654    12119    12120 1
   12655    12119    12168 1
   12656    12119    12169 1
   12657    12120    12121 1
   12658    12120    12127 1
   12659    12120    12170 1
   12660    12121    12122 1
   12661    12121    12171 1
   12662    12121    12172 1
   12663    12122    12123 1
   12664    12122    12173 1
   12665    12122    12174 1
   12666    12123    12124 1
   12667    12123    12175 1
   12668    12123    12176 1
   12669    12124    12125 1
   12670    12124    12177 1
   12671    12124    12178 1
   12672    12125    12126 1
   12673    12125    12179 1
   12674    12125    12180 1
   12675    12126    12181 1
   12676    12126    12182 1
   12677    12126    12183 1
   12678    12127    12128 1
   12679    12127    12184 1
   12680    12127    12185 1
   12681    12128    12129 1
   12682    12128    12186 1
   12683    12128    12187 1
   12684    12129    12130 1
   12685    12129    12188 1
   12686    12129    12189 1
   12687    12130    12131 1
   12688    12130    12190 1
   12689    12130    12191 1
   12690    12131    12132 1
   12691    12131    12192 1
   12692    12131    12193 1
   12693    12132    12133 1
   12694    12132    12194 1
   12695    12132    12195 1
   12696    12133    12134 1
   12697    12133    12196 1
   12698    12133    12197 1
   12699    12134    12198 1
   12700    12134    12199 1
   12701    12134    12200 1
   12702    12201    12202 1
   12703    12201    12208 1
   12704    12201    12240 1
   12705    12202    12203 1
   12706    12202    12206 1
   12707    12203    12204 1
   12708    12203    12207 1
   12709    12204    12205 1
   12710    12205    12206 1
   12711    12205    12216 1
   12712    12206    12212 1
   12713    12207    12208 1
   12714    12207    12211 1
   12715    12208    12209 1
   12716    12209    12210 1
   12717    12209    12213 1
   12718    12210    12211 1
   12719    12214    12215 1
   12720    12214    12222 1
   12721    12215    12216 1
   12722    12215    12223 1
   12723    12216    12217 1
   12724    12217    12218 1
   12725    12217    12221 1
   12726    12218    12219 1
   12727    12219    12220 1
   12728    12220    12221 1
   12729    12221    12222 1
   12730    12222    12332 1
   12731    12224    12225 1
   12732    12224    12257 1
   12733    12224    12258 1
   12734    12224    12259 1
   12735    12225    12226 1
   12736    12225    12260 1
   12737    12225    12261 1
   12738    12226    12227 1
   12739    12226    12262 1
   12740    12226    12263 1
   12741    12227    12228 1
   12742    12227    12264 1
   12743    12227    12265 1
   12744    12228    12229 1
   12745    12228    12266 1
   12746    12228    12267 1
   12747    12229    12230 1
   12748    12229    12268 1
   12749    12229    12269 1
   12750    12230    12231 1
   12751    12230    12270 1
   12752    12230    12271 1
   12753    12231    12232 1
   12754    12231    12272 1
   12755    12231    12273 1
   12756    12232    12233 1
   12757    12232    12239 1
   12758    12232    12274 1
   12759    12233    12234 1
   12760    12233    12275 1
   12761    12233    12276 1
   12762    12234    12235 1
   12763    12234    12277 1
   12764    12234    12278 1
   12765    12235    12236 1
   12766    12235    12279 1
   12767    12235    12280 1
   12768    12236    12237 1
   12769    12236    12281 1
   12770    12236    12282 1
   12771    12237    12238 1
   12772    12237    12283 1
   12773    12237    12284 1
   12774    12238    12285 1
   12775    12238    12286 1
   12776    12238    12287 1
   12777    12239    12240 1
   12778    12239    12288 1
   12779    12239    12289 1
   12780    12240    12241 1
   12781    12241    12242 1
   12782    12241    12290 1
   12783    12241    12291 1
   12784    12242    12243 1
   12785    12242    12249 1
   12786    12242    12292 1
   12787    12243    12244 1
   12788    12243    12293 1
   12789    12243    12294 1
   12790    12244    12245 1
   12791    12244    12295 1
   12792    12244    12296 1
   12793    12245    12246 1
   12794    12245    12297 1
   12795    12245    12298 1
   12796    12246    12247 1
   12797    12246    12299 1
   12798    12246    12300 1
   12799    12247    12248 1
   12800    12247    12301 1
   12801    12247    12302 1
   12802    12248    12303 1
   12803    12248    12304 1
   12804    12248    12305 1
   12805    12249    12250 1
   12806    12249    12306 1
   12807    12249    12307 1
   12808    12250    12251 1
   12809    12250    12308 1
   12810    12250    12309 1
   12811    12251    12252 1
   12812    12251    12310 1
   12813    12251    12311 1
   12814    12252    12253 1
   12815    12252    12312 1
   12816    12252    12313 1
   12817    12253    12254 1
   12818    12253    12314 1
   12819    12253    12315 1
   12820    12254    12255 1
   12821    12254    12316 1
   12822    12254    12317 1
   12823    12255    12256 1
   12824    12255    12318 1
   12825    12255    12319 1
   12826    12256    12320 1
   12827    12256    12321 1
   12828    12256    12322 1
   12829    12323    12324 1
   12830    12323    12330 1
   12831    12323    12362 1
   12832    12324    12325 1
   12833    12324    12328 1
   12834    12325    12326 1
   12835    12325    12329 1
   12836    12326    12327 1
   12837    12327    12328 1
   12838    12327    12338 1
   12839    12328    12334 1
   12840    12329    12330 1
   12841    12329    12333 1
   12842    12330    12331 1
   12843    12331    12332 1
   12844    12331    12335 1
   12845    12332    12333 1
   12846    12336    12337 1
   12847    12336    12344 1
   12848    12337    12338 1
   12849    12337    12345 1
   12850    12338    12339 1
   12851    12339    12340 1
   12852    12339    12343 1
   12853    12340    12341 1
   12854    12341    12342 1
   12855    12342    12343 1
   12856    12343    12344 1
   12857    12344    12454 1
   12858    12346    12347 1
   12859    12346    12379 1
   12860    12346    12380 1
   12861    12346    12381 1
   12862    12347    12348 1
   12863    12347    12382 1
   12864    12347    12383 1
   12865    12348    12349 1
   12866    12348    12384 1
   12867    12348    12385 1
   12868    12349    12350 1
   12869    12349    12386 1
   12870    12349    12387 1
   12871    12350    12351 1
   12872    12350    12388 1
   12873    12350    12389 1
   12874    12351    12352 1
   12875    12351    12390 1
   12876    12351    12391 1
   12877    12352    12353 1
   12878    12352    12392 1
   12879    12352    12393 1
   12880    12353    12354 1
   12881    12353    12394 1
   12882    12353    12395 1
   12883    12354    12355 1
   12884    12354    12361 1
   12885    12354    12396 1
   12886    12355    12356 1
   12887    12355    12397 1
   12888    12355    12398 1
   12889    12356    12357 1
   12890    12356    12399 1
   12891    12356    12400 1
   12892    12357    12358 1
   12893    12357    12401 1
   12894    12357    12402 1
   12895    12358    12359 1
   12896    12358    12403 1
   12897    12358    12404 1
   12898    12359    12360 1
   12899    12359    12405 1
   12900    12359    12406 1
   12901    12360    12407 1
   12902    12360    12408 1
   12903    12360    12409 1
   12904    12361    12362 1
   12905    12361    12410 1
   12906    12361    12411 1
   12907    12362    12363 1
   12908    12363    12364 1
   12909    12363    12412 1
   12910    12363    12413 1
   12911    12364    12365 1
   12912    12364    12371 1
   12913    12364    12414 1
   12914    12365    12366 1
   12915    12365    12415 1
   12916    12365    12416 1
   12917    12366    12367 1
   12918    12366    12417 1
   12919    12366    12418 1
   12920    12367    12368 1
   12921    12367    12419 1
   12922    12367    12420 1
   12923    12368    12369 1
   12924    12368    12421 1
   12925    12368    12422 1
   12926    12369    12370 1
   12927    12369    12423 1
   12928    12369    12424 1
   12929    12370    12425 1
   12930    12370    12426 1
   12931    12370    12427 1
   12932    12371    12372 1
   12933    12371    12428 1
   12934    12371    12429 1
   12935    12372    12373 1
   12936    12372    12430 1
   12937    12372    12431 1
   12938    12373    12374 1
   12939    12373    12432 1
   12940    12373    12433 1
   12941    12374    12375 1
   12942    12374    12434 1
   12943    12374    12435 1
   12944    12375    12376 1
   12945    12375    12436 1
   12946    12375    12437 1
   12947    12376    12377 1
   12948    12376    12438 1
   12949    12376    12439 1
   12950    12377    12378 1
   12951    12377    12440 1
   12952    12377    12441 1
   12953    12378    12442 1
   12954    12378    12443 1
   12955    12378    12444 1
   12956    12445    12446 1
   12957    12445    12452 1
   12958    12445    12484 1
   12959    12446    12447 1
   12960    12446    12450 1
   12961    12447    12448 1
   12962    12447    12451 1
   12963    12448    12449 1
   12964    12449    12450 1
   12965    12449    12460 1
   12966    12450    12456 1
   12967    12451    12452 1
   12968    12451    12455 1
   12969    12452    12453 1
   12970    12453    12454 1
   12971    12453    12457 1
   12972    12454    12455 1
   12973    12458    12459 1
   12974    12458    12466 1
   12975    12459    12460 1
   12976    12459    12467 1
   12977    12460    12461 1
   12978    12461    12462 1
   12979    12461    12465 1
   12980    12462    12463 1
   12981    12463    12464 1
   12982    12464    12465 1
   12983    12465    12466 1
   12984    12466    12576 1
   12985    12468    12469 1
   12986    12468    12501 1
   12987    12468    12502 1
   12988    12468    12503 1
   12989    12469    12470 1
   12990    12469    12504 1
   12991    12469    12505 1
   12992    12470    12471 1
   12993    12470    12506 1
   12994    12470    12507 1
   12995    12471    12472 1
   12996    12471    12508 1
   12997    12471    12509 1
   12998    12472    12473 1
   12999    12472    12510 1
   13000    12472    12511 1
   13001    12473    12474 1
   13002    12473    12512 1
   13003    12473    12513 1
   13004    12474    12475 1
   13005    12474    12514 1
   13006    12474    12515 1
   13007    12475    12476 1
   13008    12475    12516 1
   13009    12475    12517 1
   13010    12476    12477 1
   13011    12476    12483 1
   13012    12476    12518 1
   13013    12477    12478 1
   13014    12477    12519 1
   13015    12477    12520 1
   13016    12478    12479 1
   13017    12478    12521 1
   13018    12478    12522 1
   13019    12479    12480 1
   13020    12479    12523 1
   13021    12479    12524 1
   13022    12480    12481 1
   13023    12480    12525 1
   13024    12480    12526 1
   13025    12481    12482 1
   13026    12481    12527 1
   13027    12481    12528 1
   13028    12482    12529 1
   13029    12482    12530 1
   13030    12482    12531 1
   13031    12483    12484 1
   13032    12483    12532 1
   13033    12483    12533 1
   13034    12484    12485 1
   13035    12485    12486 1
   13036    12485    12534 1
   13037    12485    12535 1
   13038    12486    12487 1
   13039    12486    12493 1
   13040    12486    12536 1
   13041    12487    12488 1
   13042    12487    12537 1
   13043    12487    12538 1
   13044    12488    12489 1
   13045    12488    12539 1
   13046    12488    12540 1
   13047    12489    12490 1
   13048    12489    12541 1
   13049    12489    12542 1
   13050    12490    12491 1
   13051    12490    12543 1
   13052    12490    12544 1
   13053    12491    12492 1
   13054    12491    12545 1
   13055    12491    12546 1
   13056    12492    12547 1
   13057    12492    12548 1
   13058    12492    12549 1
   13059    12493    12494 1
   13060    12493    12550 1
   13061    12493    12551 1
   13062    12494    12495 1
   13063    12494    12552 1
   13064    12494    12553 1
   13065    12495    12496 1
   13066    12495    12554 1
   13067    12495    12555 1
   13068    12496    12497 1
   13069    12496    12556 1
   13070    12496    12557 1
   13071    12497    12498 1
   13072    12497    12558 1
   13073    12497    12559 1
   13074    12498    12499 1
   13075    12498    12560 1
   13076    12498    12561 1
   13077    12499    12500 1
   13078    12499    12562 1
   13079    12499    12563 1
   13080    12500    12564 1
   13081    12500    12565 1
   13082    12500    12566 1
   13083    12567    12568 1
   13084    12567    12574 1
   13085    12567    12606 1
   13086    12568    12569 1
   13087    12568    12572 1
   13088    12569    12570 1
   13089    12569    12573 1
   13090    12570    12571 1
   13091    12571    12572 1
   13092    12571    12582 1
   13093    12572    12578 1
   13094    12573    12574 1
   13095    12573    12577 1
   13096    12574    12575 1
   13097    12575    12576 1
   13098    12575    12579 1
   13099    12576    12577 1
   13100    12580    12581 1
   13101    12580    12588 1
   13102    12581    12582 1
   13103    12581    12589 1
   13104    12582    12583 1
   13105    12583    12584 1
   13106    12583    12587 1
   13107    12584    12585 1
   13108    12585    12586 1
   13109    12586    12587 1
   13110    12587    12588 1
   13111    12588    12698 1
   13112    12590    12591 1
   13113    12590    12623 1
   13114    12590    12624 1
   13115    12590    12625 1
   13116    12591    12592 1
   13117    12591    12626 1
   13118    12591    12627 1
   13119    12592    12593 1
   13120    12592    12628 1
   13121    12592    12629 1
   13122    12593    12594 1
   13123    12593    12630 1
   13124    12593    12631 1
   13125    12594    12595 1
   13126    12594    12632 1
   13127    12594    12633 1
   13128    12595    12596 1
   13129    12595    12634 1
   13130    12595    12635 1
   13131    12596    12597 1
   13132    12596    12636 1
   13133    12596    12637 1
   13134    12597    12598 1
   13135    12597    12638 1
   13136    12597    12639 1
   13137    12598    12599 1
   13138    12598    12605 1
   13139    12598    12640 1
   13140    12599    12600 1
   13141    12599    12641 1
   13142    12599    12642 1
   13143    12600    12601 1
   13144    12600    12643 1
   13145    12600    12644 1
   13146    12601    12602 1
   13147    12601    12645 1
   13148    12601    12646 1
   13149    12602    12603 1
   13150    12602    12647 1
   13151    12602    12648 1
   13152    12603    12604 1
   13153    12603    12649 1
   13154    12603    12650 1
   13155    12604    12651 1
   13156    12604    12652 1
   13157    12604    12653 1
   13158    12605    12606 1
   13159    12605    12654 1
   13160    12605    12655 1
   13161    12606    12607 1
   13162    12607    12608 1
   13163    12607    12656 1
   13164    12607    12657 1
   13165    12608    12609 1
   13166    12608    12615 1
   13167    12608    12658 1
   13168    12609    12610 1
   13169    12609    12659 1
   13170    12609    12660 1
   13171    12610    12611 1
   13172    12610    12661 1
   13173    12610    12662 1
   13174    12611    12612 1
   13175    12611    12663 1
   13176    12611    12664 1
   13177    12612    12613 1
   13178    12612    12665 1
   13179    12612    12666 1
   13180    12613    12614 1
   13181    12613    12667 1
   13182    12613    12668 1
   13183    12614    12669 1
   13184    12614    12670 1
   13185    12614    12671 1
   13186    12615    12616 1
   13187    12615    12672 1
   13188    12615    12673 1
   13189    12616    12617 1
   13190    12616    12674 1
   13191    12616    12675 1
   13192    12617    12618 1
   13193    12617    12676 1
   13194    12617    12677 1
   13195    12618    12619 1
   13196    12618    12678 1
   13197    12618    12679 1
   13198    12619    12620 1
   13199    12619    12680 1
   13200    12619    12681 1
   13201    12620    12621 1
   13202    12620    12682 1
   13203    12620    12683 1
   13204    12621    12622 1
   13205    12621    12684 1
   13206    12621    12685 1
   13207    12622    12686 1
   13208    12622    12687 1
   13209    12622    12688 1
   13210    12689    12690 1
   13211    12689    12696 1
   13212    12689    12728 1
   13213    12690    12691 1
   13214    12690    12694 1
   13215    12691    12692 1
   13216    12691    12695 1
   13217    12692    12693 1
   13218    12693    12694 1
   13219    12693    12704 1
   13220    12694    12700 1
   13221    12695    12696 1
   13222    12695    12699 1
   13223    12696    12697 1
   13224    12697    12698 1
   13225    12697    12701 1
   13226    12698    12699 1
   13227    12702    12703 1
   13228    12702    12710 1
   13229    12703    12704 1
   13230    12703    12711 1
   13231    12704    12705 1
   13232    12705    12706 1
   13233    12705    12709 1
   13234    12706    12707 1
   13235    12707    12708 1
   13236    12708    12709 1
   13237    12709    12710 1
   13238    12710    12820 1
   13239    12712    12713 1
   13240    12712    12745 1
   13241    12712    12746 1
   13242    12712    12747 1
   13243    12713    12714 1
   13244    12713    12748 1
   13245    12713    12749 1
   13246    12714    12715 1
   13247    12714    12750 1
   13248    12714    12751 1
   13249    12715    12716 1
   13250    12715    12752 1
   13251    12715    12753 1
   13252    12716    12717 1
   13253    12716    12754 1
   13254    12716    12755 1
   13255    12717    12718 1
   13256    12717    12756 1
   13257    12717    12757 1
   13258    12718    12719 1
   13259    12718    12758 1
   13260    12718    12759 1
   13261    12719    12720 1
   13262    12719    12760 1
   13263    12719    12761 1
   13264    12720    12721 1
   13265    12720    12727 1
   13266    12720    12762 1
   13267    12721    12722 1
   13268    12721    12763 1
   13269    12721    12764 1
   13270    12722    12723 1
   13271    12722    12765 1
   13272    12722    12766 1
   13273    12723    12724 1
   13274    12723    12767 1
   13275    12723    12768 1
   13276    12724    12725 1
   13277    12724    12769 1
   13278    12724    12770 1
   13279    12725    12726 1
   13280    12725    12771 1
   13281    12725    12772 1
   13282    12726    12773 1
   13283    12726    12774 1
   13284    12726    12775 1
   13285    12727    12728 1
   13286    12727    12776 1
   13287    12727    12777 1
   13288    12728    12729 1
   13289    12729    12730 1
   13290    12729    12778 1
   13291    12729    12779 1
   13292    12730    12731 1
   13293    12730    12737 1
   13294    12730    12780 1
   13295    12731    12732 1
   13296    12731    12781 1
   13297    12731    12782 1
   13298    12732    12733 1
   13299    12732    12783 1
   13300    12732    12784 1
   13301    12733    12734 1
   13302    12733    12785 1
   13303    12733    12786 1
   13304    12734    12735 1
   13305    12734    12787 1
   13306    12734    12788 1
   13307    12735    12736 1
   13308    12735    12789 1
   13309    12735    12790 1
   13310    12736    12791 1
   13311    12736    12792 1
   13312    12736    12793 1
   13313    12737    12738 1
   13314    12737    12794 1
   13315    12737    12795 1
   13316    12738    12739 1
   13317    12738    12796 1
   13318    12738    12797 1
   13319    12739    12740 1
   13320    12739    12798 1
   13321    12739    12799 1
   13322    12740    12741 1
   13323    12740    12800 1
   13324    12740    12801 1
   13325    12741    12742 1
   13326    12741    12802 1
   13327    12741    12803 1
   13328    12742    12743 1
   13329    12742    12804 1
   13330    12742    12805 1
   13331    12743    12744 1
   13332    12743    12806 1
   13333    12743    12807 1
   13334    12744    12808 1
   13335    12744    12809 1
   13336    12744    12810 1
   13337    12811    12812 1
   13338    12811    12818 1
   13339    12811    12850 1
   13340    12812    12813 1
   13341    12812    12816 1
   13342    12813    12814 1
   13343    12813    12817 1
   13344    12814    12815 1
   13345    12815    12816 1
   13346    12815    12826 1
   13347    12816    12822 1
   13348    12817    12818 1
   13349    12817    12821 1
   13350    12818    12819 1
   13351    12819    12820 1
   13352    12819    12823 1
   13353    12820    12821 1
   13354    12824    12825 1
   13355    12824    12832 1
   13356    12825    12826 1
   13357    12825    12833 1
   13358    12826    12827 1
   13359    12827    12828 1
   13360    12827    12831 1
   13361    12828    12829 1
   13362    12829    12830 1
   13363    12830    12831 1
   13364    12831    12832 1
   13365    12832    12942 1
   13366    12834    12835 1
   13367    12834    12867 1
   13368    12834    12868 1
   13369    12834    12869 1
   13370    12835    12836 1
   13371    12835    12870 1
   13372    12835    12871 1
   13373    12836    12837 1
   13374    12836    12872 1
   13375    12836    12873 1
   13376    12837    12838 1
   13377    12837    12874 1
   13378    12837    12875 1
   13379    12838    12839 1
   13380    12838    12876 1
   13381    12838    12877 1
   13382    12839    12840 1
   13383    12839    12878 1
   13384    12839    12879 1
   13385    12840    12841 1
   13386    12840    12880 1
   13387    12840    12881 1
   13388    12841    12842 1
   13389    12841    12882 1
   13390    12841    12883 1
   13391    12842    12843 1
   13392    12842    12849 1
   13393    12842    12884 1
   13394    12843    12844 1
   13395    12843    12885 1
   13396    12843    12886 1
   13397    12844    12845 1
   13398    12844    12887 1
   13399    12844    12888 1
   13400    12845    12846 1
   13401    12845    12889 1
   13402    12845    12890 1
   13403    12846    12847 1
   13404    12846    12891 1
   13405    12846    12892 1
   13406    12847    12848 1
   13407    12847    12893 1
   13408    12847    12894 1
   13409    12848    12895 1
   13410    12848    12896 1
   13411    12848    12897 1
   13412    12849    12850 1
   13413    12849    12898 1
   13414    12849    12899 1
   13415    12850    12851 1
   13416    12851    12852 1
   13417    12851    12900 1
   13418    12851    12901 1
   13419    12852    12853 1
   13420    12852    12859 1
   13421    12852    12902 1
   13422    12853    12854 1
   13423    12853    12903 1
   13424    12853    12904 1
   13425    12854    12855 1
   13426    12854    12905 1
   13427    12854    12906 1
   13428    12855    12856 1
   13429    12855    12907 1
   13430    12855    12908 1
   13431    12856    12857 1
   13432    12856    12909 1
   13433    12856    12910 1
   13434    12857    12858 1
   13435    12857    12911 1
   13436    12857    12912 1
   13437    12858    12913 1
   13438    12858    12914 1
   13439    12858    12915 1
   13440    12859    12860 1
   13441    12859    12916 1
   13442    12859    12917 1
   13443    12860    12861 1
   13444    12860    12918 1
   13445    12860    12919 1
   13446    12861    12862 1
   13447    12861    12920 1
   13448    12861    12921 1
   13449    12862    12863 1
   13450    12862    12922 1
   13451    12862    12923 1
   13452    12863    12864 1
   13453    12863    12924 1
   13454    12863    12925 1
   13455    12864    12865 1
   13456    12864    12926 1
   13457    12864    12927 1
   13458    12865    12866 1
   13459    12865    12928 1
   13460    12865    12929 1
   13461    12866    12930 1
   13462    12866    12931 1
   13463    12866    12932 1
   13464    12933    12934 1
   13465    12933    12940 1
   13466    12933    12972 1
   13467    12934    12935 1
   13468    12934    12938 1
   13469    12935    12936 1
   13470    12935    12939 1
   13471    12936    12937 1
   13472    12937    12938 1
   13473    12937    12948 1
   13474    12938    12944 1
   13475    12939    12940 1
   13476    12939    12943 1
   13477    12940    12941 1
   13478    12941    12942 1
   13479    12941    12945 1
   13480    12942    12943 1
   13481    12946    12947 1
   13482    12946    12954 1
   13483    12947    12948 1
   13484    12947    12955 1
   13485    12948    12949 1
   13486    12949    12950 1
   13487    12949    12953 1
   13488    12950    12951 1
   13489    12951    12952 1
   13490    12952    12953 1
   13491    12953    12954 1
   13492    12954    13064 1
   13493    12956    12957 1
   13494    12956    12989 1
   13495    12956    12990 1
   13496    12956    12991 1
   13497    12957    12958 1
   13498    12957    12992 1
   13499    12957    12993 1
   13500    12958    12959 1
   13501    12958    12994 1
   13502    12958    12995 1
   13503    12959    12960 1
   13504    12959    12996 1
   13505    12959    12997 1
   13506    12960    12961 1
   13507    12960    12998 1
   13508    12960    12999 1
   13509    12961    12962 1
   13510    12961    13000 1
   13511    12961    13001 1
   13512    12962    12963 1
   13513    12962    13002 1
   13514    12962    13003 1
   13515    12963    12964 1
   13516    12963    13004 1
   13517    12963    13005 1
   13518    12964    12965 1
   13519    12964    12971 1
   13520    12964    13006 1
   13521    12965    12966 1
   13522    12965    13007 1
   13523    12965    13008 1
   13524    12966    12967 1
   13525    12966    13009 1
   13526    12966    13010 1
   13527    12967    12968 1
   13528    12967    13011 1
   13529    12967    13012 1
   13530    12968    12969 1
   13531    12968    13013 1
   13532    12968    13014 1
   13533    12969    12970 1
   13534    12969    13015 1
   13535    12969    13016 1
   13536    12970    13017 1
   13537    12970    13018 1
   13538    12970    13019 1
   13539    12971    12972 1
   13540    12971    13020 1
   13541    12971    13021 1
   13542    12972    12973 1
   13543    12973    12974 1
   13544    12973    13022 1
   13545    12973    13023 1
   13546    12974    12975 1
   13547    12974    12981 1
   13548    12974    13024 1
   13549    12975    12976 1
   13550    12975    13025 1
   13551    12975    13026 1
   13552    12976    12977 1
   13553    12976    13027 1
   13554    12976    13028 1
   13555    12977    12978 1
   13556    12977    13029 1
   13557    12977    13030 1
   13558    12978    12979 1
   13559    12978    13031 1
   13560    12978    13032 1
   13561    12979    12980 1
   13562    12979    13033 1
   13563    12979    13034 1
   13564    12980    13035 1
   13565    12980    13036 1
   13566    12980    13037 1
   13567    12981    12982 1
   13568    12981    13038 1
   13569    12981    13039 1
   13570    12982    12983 1
   13571    12982    13040 1
   13572    12982    13041 1
   13573    12983    12984 1
   13574    12983    13042 1
   13575    12983    13043 1
   13576    12984    12985 1
   13577    12984    13044 1
   13578    12984    13045 1
   13579    12985    12986 1
   13580    12985    13046 1
   13581    12985    13047 1
   13582    12986    12987 1
   13583    12986    13048 1
   13584    12986    13049 1
   13585    12987    12988 1
   13586    12987    13050 1
   13587    12987    13051 1
   13588    12988    13052 1
   13589    12988    13053 1
   13590    12988    13054 1
   13591    13055    13056 1
   13592    13055    13062 1
   13593    13055    13094 1
   13594    13056    13057 1
   13595    13056    13060 1
   13596    13057    13058 1
   13597    13057    13061 1
   13598    13058    13059 1
   13599    13059    13060 1
   13600    13059    13070 1
   13601    13060    13066 1
   13602    13061    13062 1
   13603    13061    13065 1
   13604    13062    13063 1
   13605    13063    13064 1
   13606    13063    13067 1
   13607    13064    13065 1
   13608    13068    13069 1
   13609    13068    13076 1
   13610    13069    13070 1
   13611    13069    13077 1
   13612    13070    13071 1
   13613    13071    13072 1
   13614    13071    13075 1
   13615    13072    13073 1
   13616    13073    13074 1
   13617    13074    13075 1
   13618    13075    13076 1
   13619    13076    13186 1
   13620    13078    13079 1
   13621    13078    13111 1
   13622    13078    13112 1
   13623    13078    13113 1
   13624    13079    13080 1
   13625    13079    13114 1
   13626    13079    13115 1
   13627    13080    13081 1
   13628    13080    13116 1
   13629    13080    13117 1
   13630    13081    13082 1
   13631    13081    13118 1
   13632    13081    13119 1
   13633    13082    13083 1
   13634    13082    13120 1
   13635    13082    13121 1
   13636    13083    13084 1
   13637    13083    13122 1
   13638    13083    13123 1
   13639    13084    13085 1
   13640    13084    13124 1
   13641    13084    13125 1
   13642    13085    13086 1
   13643    13085    13126 1
   13644    13085    13127 1
   13645    13086    13087 1
   13646    13086    13093 1
   13647    13086    13128 1
   13648    13087    13088 1
   13649    13087    13129 1
   13650    13087    13130 1
   13651    13088    13089 1
   13652    13088    13131 1
   13653    13088    13132 1
   13654    13089    13090 1
   13655    13089    13133 1
   13656    13089    13134 1
   13657    13090    13091 1
   13658    13090    13135 1
   13659    13090    13136 1
   13660    13091    13092 1
   13661    13091    13137 1
   13662    13091    13138 1
   13663    13092    13139 1
   13664    13092    13140 1
   13665    13092    13141 1
   13666    13093    13094 1
   13667    13093    13142 1
   13668    13093    13143 1
   13669    13094    13095 1
   13670    13095    13096 1
   13671    13095    13144 1
   13672    13095    13145 1
   13673    13096    13097 1
   13674    13096    13103 1
   13675    13096    13146 1
   13676    13097    13098 1
   13677    13097    13147 1
   13678    13097    13148 1
   13679    13098    13099 1
   13680    13098    13149 1
   13681    13098    13150 1
   13682    13099    13100 1
   13683    13099    13151 1
   13684    13099    13152 1
   13685    13100    13101 1
   13686    13100    13153 1
   13687    13100    13154 1
   13688    13101    13102 1
   13689    13101    13155 1
   13690    13101    13156 1
   13691    13102    13157 1
   13692    13102    13158 1
   13693    13102    13159 1
   13694    13103    13104 1
   13695    13103    13160 1
   13696    13103    13161 1
   13697    13104    13105 1
   13698    13104    13162 1
   13699    13104    13163 1
   13700    13105    13106 1
   13701    13105    13164 1
   13702    13105    13165 1
   13703    13106    13107 1
   13704    13106    13166 1
   13705    13106    13167 1
   13706    13107    13108 1
   13707    13107    13168 1
   13708    13107    13169 1
   13709    13108    13109 1
   13710    13108    13170 1
   13711    13108    13171 1
   13712    13109    13110 1
   13713    13109    13172 1
   13714    13109    13173 1
   13715    13110    13174 1
   13716    13110    13175 1
   13717    13110    13176 1
   13718    13177    13178 1
   13719    13177    13184 1
   13720    13177    13216 1
   13721    13178    13179 1
   13722    13178    13182 1
   13723    13179    13180 1
   13724    13179    13183 1
   13725    13180    13181 1
   13726    13181    13182 1
   13727    13181    13192 1
   13728    13182    13188 1
   13729    13183    13184 1
   13730    13183    13187 1
   13731    13184    13185 1
   13732    13185    13186 1
   13733    13185    13189 1
   13734    13186    13187 1
   13735    13190    13191 1
   13736    13190    13198 1
   13737    13191    13192 1
   13738    13191    13199 1
   13739    13192    13193 1
   13740    13193    13194 1
   13741    13193    13197 1
   13742    13194    13195 1
   13743    13195    13196 1
   13744    13196    13197 1
   13745    13197    13198 1
   13746    13198    13308 1
   13747    13200    13201 1
   13748    13200    13233 1
   13749    13200    13234 1
   13750    13200    13235 1
   13751    13201    13202 1
   13752    13201    13236 1
   13753    13201    13237 1
   13754    13202    13203 1
   13755    13202    13238 1
   13756    13202    13239 1
   13757    13203    13204 1
   13758    13203    13240 1
   13759    13203    13241 1
   13760    13204    13205 1
   13761    13204    13242 1
   13762    13204    13243 1
   13763    13205    13206 1
   13764    13205    13244 1
   13765    13205    13245 1
   13766    13206    13207 1
   13767    13206    13246 1
   13768    13206    13247 1
   13769    13207    13208 1
   13770    13207    13248 1
   13771    13207    13249 1
   13772    13208    13209 1
   13773    13208    13215 1
   13774    13208    13250 1
   13775    13209    13210 1
   13776    13209    13251 1
   13777    13209    13252 1
   13778    13210    13211 1
   13779    13210    13253 1
   13780    13210    13254 1
   13781    13211    13212 1
   13782    13211    13255 1
   13783    13211    13256 1
   13784    13212    13213 1
   13785    13212    13257 1
   13786    13212    13258 1
   13787    13213    13214 1
   13788    13213    13259 1
   13789    13213    13260 1
   13790    13214    13261 1
   13791    13214    13262 1
   13792    13214    13263 1
   13793    13215    13216 1
   13794    13215    13264 1
   13795    13215    13265 1
   13796    13216    13217 1
   13797    13217    13218 1
   13798    13217    13266 1
   13799    13217    13267 1
   13800    13218    13219 1
   13801    13218    13225 1
   13802    13218    13268 1
   13803    13219    13220 1
   13804    13219    13269 1
   13805    13219    13270 1
   13806    13220    13221 1
   13807    13220    13271 1
   13808    13220    13272 1
   13809    13221    13222 1
   13810    13221    13273 1
   13811    13221    13274 1
   13812    13222    13223 1
   13813    13222    13275 1
   13814    13222    13276 1
   13815    13223    13224 1
   13816    13223    13277 1
   13817    13223    13278 1
   13818    13224    13279 1
   13819    13224    13280 1
   13820    13224    13281 1
   13821    13225    13226 1
   13822    13225    13282 1
   13823    13225    13283 1
   13824    13226    13227 1
   13825    13226    13284 1
   13826    13226    13285 1
   13827    13227    13228 1
   13828    13227    13286 1
   13829    13227    13287 1
   13830    13228    13229 1
   13831    13228    13288 1
   13832    13228    13289 1
   13833    13229    13230 1
   13834    13229    13290 1
   13835    13229    13291 1
   13836    13230    13231 1
   13837    13230    13292 1
   13838    13230    13293 1
   13839    13231    13232 1
   13840    13231    13294 1
   13841    13231    13295 1
   13842    13232    13296 1
   13843    13232    13297 1
   13844    13232    13298 1
   13845    13299    13300 1
   13846    13299    13306 1
   13847    13299    13338 1
   13848    13300    13301 1
   13849    13300    13304 1
   13850    13301    13302 1
   13851    13301    13305 1
   13852    13302    13303 1
   13853    13303    13304 1
   13854    13303    13314 1
   13855    13304    13310 1
   13856    13305    13306 1
   13857    13305    13309 1
   13858    13306    13307 1
   13859    13307    13308 1
   13860    13307    13311 1
   13861    13308    13309 1
   13862    13312    13313 1
   13863    13312    13320 1
   13864    13313    13314 1
   13865    13313    13321 1
   13866    13314    13315 1
   13867    13315    13316 1
   13868    13315    13319 1
   13869    13316    13317 1
   13870    13317    13318 1
   13871    13318    13319 1
   13872    13319    13320 1
   13873    13320    13430 1
   13874    13322    13323 1
   13875    13322    13355 1
   13876    13322    13356 1
   13877    13322    13357 1
   13878    13323    13324 1
   13879    13323    13358 1
   13880    13323    13359 1
   13881    13324    13325 1
   13882    13324    13360 1
   13883    13324    13361 1
   13884    13325    13326 1
   13885    13325    13362 1
   13886    13325    13363 1
   13887    13326    13327 1
   13888    13326    13364 1
   13889    13326    13365 1
   13890    13327    13328 1
   13891    13327    13366 1
   13892    13327    13367 1
   13893    13328    13329 1
   13894    13328    13368 1
   13895    13328    13369 1
   13896    13329    13330 1
   13897    13329    13370 1
   13898    13329    13371 1
   13899    13330    13331 1
   13900    13330    13337 1
   13901    13330    13372 1
   13902    13331    13332 1
   13903    13331    13373 1
   13904    13331    13374 1
   13905    13332    13333 1
   13906    13332    13375 1
   13907    13332    13376 1
   13908    13333    13334 1
   13909    13333    13377 1
   13910    13333    13378 1
   13911    13334    13335 1
   13912    13334    13379 1
   13913    13334    13380 1
   13914    13335    13336 1
   13915    13335    13381 1
   13916    13335    13382 1
   13917    13336    13383 1
   13918    13336    13384 1
   13919    13336    13385 1
   13920    13337    13338 1
   13921    13337    13386 1
   13922    13337    13387 1
   13923    13338    13339 1
   13924    13339    13340 1
   13925    13339    13388 1
   13926    13339    13389 1
   13927    13340    13341 1
   13928    13340    13347 1
   13929    13340    13390 1
   13930    13341    13342 1
   13931    13341    13391 1
   13932    13341    13392 1
   13933    13342    13343 1
   13934    13342    13393 1
   13935    13342    13394 1
   13936    13343    13344 1
   13937    13343    13395 1
   13938    13343    13396 1
   13939    13344    13345 1
   13940    13344    13397 1
   13941    13344    13398 1
   13942    13345    13346 1
   13943    13345    13399 1
   13944    13345    13400 1
   13945    13346    13401 1
   13946    13346    13402 1
   13947    13346    13403 1
   13948    13347    13348 1
   13949    13347    13404 1
   13950    13347    13405 1
   13951    13348    13349 1
   13952    13348    13406 1
   13953    13348    13407 1
   13954    13349    13350 1
   13955    13349    13408 1
   13956    13349    13409 1
   13957    13350    13351 1
   13958    13350    13410 1
   13959    13350    13411 1
   13960    13351    13352 1
   13961    13351    13412 1
   13962    13351    13413 1
   13963    13352    13353 1
   13964    13352    13414 1
   13965    13352    13415 1
   13966    13353    13354 1
   13967    13353    13416 1
   13968    13353    13417 1
   13969    13354    13418 1
   13970    13354    13419 1
   13971    13354    13420 1
   13972    13421    13422 1
   13973    13421    13428 1
   13974    13421    13460 1
   13975    13422    13423 1
   13976    13422    13426 1
   13977    13423    13424 1
   13978    13423    13427 1
   13979    13424    13425 1
   13980    13425    13426 1
   13981    13425    13436 1
   13982    13426    13432 1
   13983    13427    13428 1
   13984    13427    13431 1
   13985    13428    13429 1
   13986    13429    13430 1
   13987    13429    13433 1
   13988    13430    13431 1
   13989    13434    13435 1
   13990    13434    13442 1
   13991    13435    13436 1
   13992    13435    13443 1
   13993    13436    13437 1
   13994    13437    13438 1
   13995    13437    13441 1
   13996    13438    13439 1
   13997    13439    13440 1
   13998    13440    13441 1
   13999    13441    13442 1
   14000    13442    13552 1
   14001    13444    13445 1
   14002    13444    13477 1
   14003    13444    13478 1
   14004    13444    13479 1
   14005    13445    13446 1
   14006    13445    13480 1
   14007    13445    13481 1
   14008    13446    13447 1
   14009    13446    13482 1
   14010    13446    13483 1
   14011    13447    13448 1
   14012    13447    13484 1
   14013    13447    13485 1
   14014    13448    13449 1
   14015    13448    13486 1
   14016    13448    13487 1
   14017    13449    13450 1
   14018    13449    13488 1
   14019    13449    13489 1
   14020    13450    13451 1
   14021    13450    13490 1
   14022    13450    13491 1
   14023    13451    13452 1
   14024    13451    13492 1
   14025    13451    13493 1
   14026    13452    13453 1
   14027    13452    13459 1
   14028    13452    13494 1
   14029    13453    13454 1
   14030    13453    13495 1
   14031    13453    13496 1
   14032    13454    13455 1
   14033    13454    13497 1
   14034    13454    13498 1
   14035    13455    13456 1
   14036    13455    13499 1
   14037    13455    13500 1
   14038    13456    13457 1
   14039    13456    13501 1
   14040    13456    13502 1
   14041    13457    13458 1
   14042    13457    13503 1
   14043    13457    13504 1
   14044    13458    13505 1
   14045    13458    13506 1
   14046    13458    13507 1
   14047    13459    13460 1
   14048    13459    13508 1
   14049    13459    13509 1
   14050    13460    13461 1
   14051    13461    13462 1
   14052    13461    13510 1
   14053    13461    13511 1
   14054    13462    13463 1
   14055    13462    13469 1
   14056    13462    13512 1
   14057    13463    13464 1
   14058    13463    13513 1
   14059    13463    13514 1
   14060    13464    13465 1
   14061    13464    13515 1
   14062    13464    13516 1
   14063    13465    13466 1
   14064    13465    13517 1
   14065    13465    13518 1
   14066    13466    13467 1
   14067    13466    13519 1
   14068    13466    13520 1
   14069    13467    13468 1
   14070    13467    13521 1
   14071    13467    13522 1
   14072    13468    13523 1
   14073    13468    13524 1
   14074    13468    13525 1
   14075    13469    13470 1
   14076    13469    13526 1
   14077    13469    13527 1
   14078    13470    13471 1
   14079    13470    13528 1
   14080    13470    13529 1
   14081    13471    13472 1
   14082    13471    13530 1
   14083    13471    13531 1
   14084    13472    13473 1
   14085    13472    13532 1
   14086    13472    13533 1
   14087    13473    13474 1
   14088    13473    13534 1
   14089    13473    13535 1
   14090    13474    13475 1
   14091    13474    13536 1
   14092    13474    13537 1
   14093    13475    13476 1
   14094    13475    13538 1
   14095    13475    13539 1
   14096    13476    13540 1
   14097    13476    13541 1
   14098    13476    13542 1
   14099    13543    13544 1
   14100    13543    13550 1
   14101    13543    13582 1
   14102    13544    13545 1
   14103    13544    13548 1
   14104    13545    13546 1
   14105    13545    13549 1
   14106    13546    13547 1
   14107    13547    13548 1
   14108    13547    13558 1
   14109    13548    13554 1
   14110    13549    13550 1
   14111    13549    13553 1
   14112    13550    13551 1
   14113    13551    13552 1
   14114    13551    13555 1
   14115    13552    13553 1
   14116    13556    13557 1
   14117    13556    13564 1
   14118    13557    13558 1
   14119    13557    13565 1
   14120    13558    13559 1
   14121    13559    13560 1
   14122    13559    13563 1
   14123    13560    13561 1
   14124    13561    13562 1
   14125    13562    13563 1
   14126    13563    13564 1
   14127    13564    13674 1
   14128    13566    13567 1
   14129    13566    13599 1
   14130    13566    13600 1
   14131    13566    13601 1
   14132    13567    13568 1
   14133    13567    13602 1
   14134    13567    13603 1
   14135    13568    13569 1
   14136    13568    13604 1
   14137    13568    13605 1
   14138    13569    13570 1
   14139    13569    13606 1
   14140    13569    13607 1
   14141    13570    13571 1
   14142    13570    13608 1
   14143    13570    13609 1
   14144    13571    13572 1
   14145    13571    13610 1
   14146    13571    13611 1
   14147    13572    13573 1
   14148    13572    13612 1
   14149    13572    13613 1
   14150    13573    13574 1
   14151    13573    13614 1
   14152    13573    13615 1
   14153    13574    13575 1
   14154    13574    13581 1
   14155    13574    13616 1
   14156    13575    13576 1
   14157    13575    13617 1
   14158    13575    13618 1
   14159    13576    13577 1
   14160    13576    13619 1
   14161    13576    13620 1
   14162    13577    13578 1
   14163    13577    13621 1
   14164    13577    13622 1
   14165    13578    13579 1
   14166    13578    13623 1
   14167    13578    13624 1
   14168    13579    13580 1
   14169    13579    13625 1
   14170    13579    13626 1
   14171    13580    13627 1
   14172    13580    13628 1
   14173    13580    13629 1
   14174    13581    13582 1
   14175    13581    13630 1
   14176    13581    13631 1
   14177    13582    13583 1
   14178    13583    13584 1
   14179    13583    13632 1
   14180    13583    13633 1
   14181    13584    13585 1
   14182    13584    13591 1
   14183    13584    13634 1
   14184    13585    13586 1
   14185    13585    13635 1
   14186    13585    13636 1
   14187    13586    13587 1
   14188    13586    13637 1
   14189    13586    13638 1
   14190    13587    13588 1
   14191    13587    13639 1
   14192    13587    13640 1
   14193    13588    13589 1
   14194    13588    13641 1
   14195    13588    13642 1
   14196    13589    13590 1
   14197    13589    13643 1
   14198    13589    13644 1
   14199    13590    13645 1
   14200    13590    13646 1
   14201    13590    13647 1
   14202    13591    13592 1
   14203    13591    13648 1
   14204    13591    13649 1
   14205    13592    13593 1
   14206    13592    13650 1
   14207    13592    13651 1
   14208    13593    13594 1
   14209    13593    13652 1
   14210    13593    13653 1
   14211    13594    13595 1
   14212    13594    13654 1
   14213    13594    13655 1
   14214    13595    13596 1
   14215    13595    13656 1
   14216    13595    13657 1
   14217    13596    13597 1
   14218    13596    13658 1
   14219    13596    13659 1
   14220    13597    13598 1
   14221    13597    13660 1
   14222    13597    13661 1
   14223    13598    13662 1
   14224    13598    13663 1
   14225    13598    13664 1
   14226    13665    13666 1
   14227    13665    13672 1
   14228    13665    13704 1
   14229    13666    13667 1
   14230    13666    13670 1
   14231    13667    13668 1
   14232    13667    13671 1
   14233    13668    13669 1
   14234    13669    13670 1
   14235    13669    13680 1
   14236    13670    13676 1
   14237    13671    13672 1
   14238    13671    13675 1
   14239    13672    13673 1
   14240    13673    13674 1
   14241    13673    13677 1
   14242    13674    13675 1
   14243    13678    13679 1
   14244    13678    13686 1
   14245    13679    13680 1
   14246    13679    13687 1
   14247    13680    13681 1
   14248    13681    13682 1
   14249    13681    13685 1
   14250    13682    13683 1
   14251    13683    13684 1
   14252    13684    13685 1
   14253    13685    13686 1
   14254    13686    13796 1
   14255    13688    13689 1
   14256    13688    13721 1
   14257    13688    13722 1
   14258    13688    13723 1
   14259    13689    13690 1
   14260    13689    13724 1
   14261    13689    13725 1
   14262    13690    13691 1
   14263    13690    13726 1
   14264    13690    13727 1
   14265    13691    13692 1
   14266    13691    13728 1
   14267    13691    13729 1
   14268    13692    13693 1
   14269    13692    13730 1
   14270    13692    13731 1
   14271    13693    13694 1
   14272    13693    13732 1
   14273    13693    13733 1
   14274    13694    13695 1
   14275    13694    13734 1
   14276    13694    13735 1
   14277    13695    13696 1
   14278    13695    13736 1
   14279    13695    13737 1
   14280    13696    13697 1
   14281    13696    13703 1
   14282    13696    13738 1
   14283    13697    13698 1
   14284    13697    13739 1
   14285    13697    13740 1
   14286    13698    13699 1
   14287    13698    13741 1
   14288    13698    13742 1
   14289    13699    13700 1
   14290    13699    13743 1
   14291    13699    13744 1
   14292    13700    13701 1
   14293    13700    13745 1
   14294    13700    13746 1
   14295    13701    13702 1
   14296    13701    13747 1
   14297    13701    13748 1
   14298    13702    13749 1
   14299    13702    13750 1
   14300    13702    13751 1
   14301    13703    13704 1
   14302    13703    13752 1
   14303    13703    13753 1
   14304    13704    13705 1
   14305    13705    13706 1
   14306    13705    13754 1
   14307    13705    13755 1
   14308    13706    13707 1
   14309    13706    13713 1
   14310    13706    13756 1
   14311    13707    13708 1
   14312    13707    13757 1
   14313    13707    13758 1
   14314    13708    13709 1
   14315    13708    13759 1
   14316    13708    13760 1
   14317    13709    13710 1
   14318    13709    13761 1
   14319    13709    13762 1
   14320    13710    13711 1
   14321    13710    13763 1
   14322    13710    13764 1
   14323    13711    13712 1
   14324    13711    13765 1
   14325    13711    13766 1
   14326    13712    13767 1
   14327    13712    13768 1
   14328    13712    13769 1
   14329    13713    13714 1
   14330    13713    13770 1
   14331    13713    13771 1
   14332    13714    13715 1
   14333    13714    13772 1
   14334    13714    13773 1
   14335    13715    13716 1
   14336    13715    13774 1
   14337    13715    13775 1
   14338    13716    13717 1
   14339    13716    13776 1
   14340    13716    13777 1
   14341    13717    13718 1
   14342    13717    13778 1
   14343    13717    13779 1
   14344    13718    13719 1
   14345    13718    13780 1
   14346    13718    13781 1
   14347    13719    13720 1
   14348    13719    13782 1
   14349    13719    13783 1
   14350    13720    13784 1
   14351    13720    13785 1
   14352    13720    13786 1
   14353    13787    13788 1
   14354    13787    13794 1
   14355    13787    13826 1
   14356    13788    13789 1
   14357    13788    13792 1
   14358    13789    13790 1
   14359    13789    13793 1
   14360    13790    13791 1
   14361    13791    13792 1
   14362    13791    13802 1
   14363    13792    13798 1
   14364    13793    13794 1
   14365    13793    13797 1
   14366    13794    13795 1
   14367    13795    13796 1
   14368    13795    13799 1
   14369    13796    13797 1
   14370    13800    13801 1
   14371    13800    13808 1
   14372    13801    13802 1
   14373    13801    13809 1
   14374    13802    13803 1
   14375    13803    13804 1
   14376    13803    13807 1
   14377    13804    13805 1
   14378    13805    13806 1
   14379    13806    13807 1
   14380    13807    13808 1
   14381    13808    13918 1
   14382    13810    13811 1
   14383    13810    13843 1
   14384    13810    13844 1
   14385    13810    13845 1
   14386    13811    13812 1
   14387    13811    13846 1
   14388    13811    13847 1
   14389    13812    13813 1
   14390    13812    13848 1
   14391    13812    13849 1
   14392    13813    13814 1
   14393    13813    13850 1
   14394    13813    13851 1
   14395    13814    13815 1
   14396    13814    13852 1
   14397    13814    13853 1
   14398    13815    13816 1
   14399    13815    13854 1
   14400    13815    13855 1
   14401    13816    13817 1
   14402    13816    13856 1
   14403    13816    13857 1
   14404    13817    13818 1
   14405    13817    13858 1
   14406    13817    13859 1
   14407    13818    13819 1
   14408    13818    13825 1
   14409    13818    13860 1
   14410    13819    13820 1
   14411    13819    13861 1
   14412    13819    13862 1
   14413    13820    13821 1
   14414    13820    13863 1
   14415    13820    13864 1
   14416    13821    13822 1
   14417    13821    13865 1
   14418    13821    13866 1
   14419    13822    13823 1
   14420    13822    13867 1
   14421    13822    13868 1
   14422    13823    13824 1
   14423    13823    13869 1
   14424    13823    13870 1
   14425    13824    13871 1
   14426    13824    13872 1
   14427    13824    13873 1
   14428    13825    13826 1
   14429    13825    13874 1
   14430    13825    13875 1
   14431    13826    13827 1
   14432    13827    13828 1
   14433    13827    13876 1
   14434    13827    13877 1
   14435    13828    13829 1
   14436    13828    13835 1
   14437    13828    13878 1
   14438    13829    13830 1
   14439    13829    13879 1
   14440    13829    13880 1
   14441    13830    13831 1
   14442    13830    13881 1
   14443    13830    13882 1
   14444    13831    13832 1
   14445    13831    13883 1
   14446    13831    13884 1
   14447    13832    13833 1
   14448    13832    13885 1
   14449    13832    13886 1
   14450    13833    13834 1
   14451    13833    13887 1
   14452    13833    13888 1
   14453    13834    13889 1
   14454    13834    13890 1
   14455    13834    13891 1
   14456    13835    13836 1
   14457    13835    13892 1
   14458    13835    13893 1
   14459    13836    13837 1
   14460    13836    13894 1
   14461    13836    13895 1
   14462    13837    13838 1
   14463    13837    13896 1
   14464    13837    13897 1
   14465    13838    13839 1
   14466    13838    13898 1
   14467    13838    13899 1
   14468    13839    13840 1
   14469    13839    13900 1
   14470    13839    13901 1
   14471    13840    13841 1
   14472    13840    13902 1
   14473    13840    13903 1
   14474    13841    13842 1
   14475    13841    13904 1
   14476    13841    13905 1
   14477    13842    13906 1
   14478    13842    13907 1
   14479    13842    13908 1
   14480    13909    13910 1
   14481    13909    13916 1
   14482    13909    13948 1
   14483    13910    13911 1
   14484    13910    13914 1
   14485    13911    13912 1
   14486    13911    13915 1
   14487    13912    13913 1
   14488    13913    13914 1
   14489    13913    13924 1
   14490    13914    13920 1
   14491    13915    13916 1
   14492    13915    13919 1
   14493    13916    13917 1
   14494    13917    13918 1
   14495    13917    13921 1
   14496    13918    13919 1
   14497    13922    13923 1
   14498    13922    13930 1
   14499    13923    13924 1
   14500    13923    13931 1
   14501    13924    13925 1
   14502    13925    13926 1
   14503    13925    13929 1
   14504    13926    13927 1
   14505    13927    13928 1
   14506    13928    13929 1
   14507    13929    13930 1
   14508    13930    14040 1
   14509    13932    13933 1
   14510    13932    13965 1
   14511    13932    13966 1
   14512    13932    13967 1
   14513    13933    13934 1
   14514    13933    13968 1
   14515    13933    13969 1
   14516    13934    13935 1
   14517    13934    13970 1
   14518    13934    13971 1
   14519    13935    13936 1
   14520    13935    13972 1
   14521    13935    13973 1
   14522    13936    13937 1
   14523    13936    13974 1
   14524    13936    13975 1
   14525    13937    13938 1
   14526    13937    13976 1
   14527    13937    13977 1
   14528    13938    13939 1
   14529    13938    13978 1
   14530    13938    13979 1
   14531    13939    13940 1
   14532    13939    13980 1
   14533    13939    13981 1
   14534    13940    13941 1
   14535    13940    13947 1
   14536    13940    13982 1
   14537    13941    13942 1
   14538    13941    13983 1
   14539    13941    13984 1
   14540    13942    13943 1
   14541    13942    13985 1
   14542    13942    13986 1
   14543    13943    13944 1
   14544    13943    13987 1
   14545    13943    13988 1
   14546    13944    13945 1
   14547    13944    13989 1
   14548    13944    13990 1
   14549    13945    13946 1
   14550    13945    13991 1
   14551    13945    13992 1
   14552    13946    13993 1
   14553    13946    13994 1
   14554    13946    13995 1
   14555    13947    13948 1
   14556    13947    13996 1
   14557    13947    13997 1
   14558    13948    13949 1
   14559    13949    13950 1
   14560    13949    13998 1
   14561    13949    13999 1
   14562    13950    13951 1
   14563    13950    13957 1
   14564    13950    14000 1
   14565    13951    13952 1
   14566    13951    14001 1
   14567    13951    14002 1
   14568    13952    13953 1
   14569    13952    14003 1
   14570    13952    14004 1
   14571    13953    13954 1
   14572    13953    14005 1
   14573    13953    14006 1
   14574    13954    13955 1
   14575    13954    14007 1
   14576    13954    14008 1
   14577    13955    13956 1
   14578    13955    14009 1
   14579    13955    14010 1
   14580    13956    14011 1
   14581    13956    14012 1
   14582    13956    14013 1
   14583    13957    13958 1
   14584    13957    14014 1
   14585    13957    14015 1
   14586    13958    13959 1
   14587    13958    14016 1
   14588    13958    14017 1
   14589    13959    13960 1
   14590    13959    14018 1
   14591    13959    14019 1
   14592    13960    13961 1
   14593    13960    14020 1
   14594    13960    14021 1
   14595    13961    13962 1
   14596    13961    14022 1
   14597    13961    14023 1
   14598    13962    13963 1
   14599    13962    14024 1
   14600    13962    14025 1
   14601    13963    13964 1
   14602    13963    14026 1
   14603    13963    14027 1
   14604    13964    14028 1
   14605    13964    14029 1
   14606    13964    14030 1
   14607    14031    14032 1
   14608    14031    14038 1
   14609    14031    14070 1
   14610    14032    14033 1
   14611    14032    14036 1
   14612    14033    14034 1
   14613    14033    14037 1
   14614    14034    14035 1
   14615    14035    14036 1
   14616    14035    14046 1
   14617    14036    14042 1
   14618    14037    14038 1
   14619    14037    14041 1
   14620    14038    14039 1
   14621    14039    14040 1
   14622    14039    14043 1
   14623    14040    14041 1
   14624    14044    14045 1
   14625    14044    14052 1
   14626    14045    14046 1
   14627    14045    14053 1
   14628    14046    14047 1
   14629    14047    14048 1
   14630    14047    14051 1
   14631    14048    14049 1
   14632    14049    14050 1
   14633    14050    14051 1
   14634    14051    14052 1
   14635    14052    14162 1
   14636    14054    14055 1
   14637    14054    14087 1
   14638    14054    14088 1
   14639    14054    14089 1
   14640    14055    14056 1
   14641    14055    14090 1
   14642    14055    14091 1
   14643    14056    14057 1
   14644    14056    14092 1
   14645    14056    14093 1
   14646    14057    14058 1
   14647    14057    14094 1
   14648    14057    14095 1
   14649    14058    14059 1
   14650    14058    14096 1
   14651    14058    14097 1
   14652    14059    14060 1
   14653    14059    14098 1
   14654    14059    14099 1
   14655    14060    14061 1
   14656    14060    14100 1
   14657    14060    14101 1
   14658    14061    14062 1
   14659    14061    14102 1
   14660    14061    14103 1
   14661    14062    14063 1
   14662    14062    14069 1
   14663    14062    14104 1
   14664    14063    14064 1
   14665    14063    14105 1
   14666    14063    14106 1
   14667    14064    14065 1
   14668    14064    14107 1
   14669    14064    14108 1
   14670    14065    14066 1
   14671    14065    14109 1
   14672    14065    14110 1
   14673    14066    14067 1
   14674    14066    14111 1
   14675    14066    14112 1
   14676    14067    14068 1
   14677    14067    14113 1
   14678    14067    14114 1
   14679    14068    14115 1
   14680    14068    14116 1
   14681    14068    14117 1
   14682    14069    14070 1
   14683    14069    14118 1
   14684    14069    14119 1
   14685    14070    14071 1
   14686    14071    14072 1
   14687    14071    14120 1
   14688    14071    14121 1
   14689    14072    14073 1
   14690    14072    14079 1
   14691    14072    14122 1
   14692    14073    14074 1
   14693    14073    14123 1
   14694    14073    14124 1
   14695    14074    14075 1
   14696    14074    14125 1
   14697    14074    14126 1
   14698    14075    14076 1
   14699    14075    14127 1
   14700    14075    14128 1
   14701    14076    14077 1
   14702    14076    14129 1
   14703    14076    14130 1
   14704    14077    14078 1
   14705    14077    14131 1
   14706    14077    14132 1
   14707    14078    14133 1
   14708    14078    14134 1
   14709    14078    14135 1
   14710    14079    14080 1
   14711    14079    14136 1
   14712    14079    14137 1
   14713    14080    14081 1
   14714    14080    14138 1
   14715    14080    14139 1
   14716    14081    14082 1
   14717    14081    14140 1
   14718    14081    14141 1
   14719    14082    14083 1
   14720    14082    14142 1
   14721    14082    14143 1
   14722    14083    14084 1
   14723    14083    14144 1
   14724    14083    14145 1
   14725    14084    14085 1
   14726    14084    14146 1
   14727    14084    14147 1
   14728    14085    14086 1
   14729    14085    14148 1
   14730    14085    14149 1
   14731    14086    14150 1
   14732    14086    14151 1
   14733    14086    14152 1
   14734    14153    14154 1
   14735    14153    14160 1
   14736    14153    14192 1
   14737    14154    14155 1
   14738    14154    14158 1
   14739    14155    14156 1
   14740    14155    14159 1
   14741    14156    14157 1
   14742    14157    14158 1
   14743    14157    14168 1
   14744    14158    14164 1
   14745    14159    14160 1
   14746    14159    14163 1
   14747    14160    14161 1
   14748    14161    14162 1
   14749    14161    14165 1
   14750    14162    14163 1
   14751    14166    14167 1
   14752    14166    14174 1
   14753    14167    14168 1
   14754    14167    14175 1
   14755    14168    14169 1
   14756    14169    14170 1
   14757    14169    14173 1
   14758    14170    14171 1
   14759    14171    14172 1
   14760    14172    14173 1
   14761    14173    14174 1
   14762    14174    14284 1
   14763    14176    14177 1
   14764    14176    14209 1
   14765    14176    14210 1
   14766    14176    14211 1
   14767    14177    14178 1
   14768    14177    14212 1
   14769    14177    14213 1
   14770    14178    14179 1
   14771    14178    14214 1
   14772    14178    14215 1
   14773    14179    14180 1
   14774    14179    14216 1
   14775    14179    14217 1
   14776    14180    14181 1
   14777    14180    14218 1
   14778    14180    14219 1
   14779    14181    14182 1
   14780    14181    14220 1
   14781    14181    14221 1
   14782    14182    14183 1
   14783    14182    14222 1
   14784    14182    14223 1
   14785    14183    14184 1
   14786    14183    14224 1
   14787    14183    14225 1
   14788    14184    14185 1
   14789    14184    14191 1
   14790    14184    14226 1
   14791    14185    14186 1
   14792    14185    14227 1
   14793    14185    14228 1
   14794    14186    14187 1
   14795    14186    14229 1
   14796    14186    14230 1
   14797    14187    14188 1
   14798    14187    14231 1
   14799    14187    14232 1
   14800    14188    14189 1
   14801    14188    14233 1
   14802    14188    14234 1
   14803    14189    14190 1
   14804    14189    14235 1
   14805    14189    14236 1
   14806    14190    14237 1
   14807    14190    14238 1
   14808    14190    14239 1
   14809    14191    14192 1
   14810    14191    14240 1
   14811    14191    14241 1
   14812    14192    14193 1
   14813    14193    14194 1
   14814    14193    14242 1
   14815    14193    14243 1
   14816    14194    14195 1
   14817    14194    14201 1
   14818    14194    14244 1
   14819    14195    14196 1
   14820    14195    14245 1
   14821    14195    14246 1
   14822    14196    14197 1
   14823    14196    14247 1
   14824    14196    14248 1
   14825    14197    14198 1
   14826    14197    14249 1
   14827    14197    14250 1
   14828    14198    14199 1
   14829    14198    14251 1
   14830    14198    14252 1
   14831    14199    14200 1
   14832    14199    14253 1
   14833    14199    14254 1
   14834    14200    14255 1
   14835    14200    14256 1
   14836    14200    14257 1
   14837    14201    14202 1
   14838    14201    14258 1
   14839    14201    14259 1
   14840    14202    14203 1
   14841    14202    14260 1
   14842    14202    14261 1
   14843    14203    14204 1
   14844    14203    14262 1
   14845    14203    14263 1
   14846    14204    14205 1
   14847    14204    14264 1
   14848    14204    14265 1
   14849    14205    14206 1
   14850    14205    14266 1
   14851    14205    14267 1
   14852    14206    14207 1
   14853    14206    14268 1
   14854    14206    14269 1
   14855    14207    14208 1
   14856    14207    14270 1
   14857    14207    14271 1
   14858    14208    14272 1
   14859    14208    14273 1
   14860    14208    14274 1
   14861    14275    14276 1
   14862    14275    14282 1
   14863    14275    14314 1
   14864    14276    14277 1
   14865    14276    14280 1
   14866    14277    14278 1
   14867    14277    14281 1
   14868    14278    14279 1
   14869    14279    14280 1
   14870    14279    14290 1
   14871    14280    14286 1
   14872    14281    14282 1
   14873    14281    14285 1
   14874    14282    14283 1
   14875    14283    14284 1
   14876    14283    14287 1
   14877    14284    14285 1
   14878    14288    14289 1
   14879    14288    14296 1
   14880    14289    14290 1
   14881    14289    14297 1
   14882    14290    14291 1
   14883    14291    14292 1
   14884    14291    14295 1
   14885    14292    14293 1
   14886    14293    14294 1
   14887    14294    14295 1
   14888    14295    14296 1
   14889    14296    14406 1
   14890    14298    14299 1
   14891    14298    14331 1
   14892    14298    14332 1
   14893    14298    14333 1
   14894    14299    14300 1
   14895    14299    14334 1
   14896    14299    14335 1
   14897    14300    14301 1
   14898    14300    14336 1
   14899    14300    14337 1
   14900    14301    14302 1
   14901    14301    14338 1
   14902    14301    14339 1
   14903    14302    14303 1
   14904    14302    14340 1
   14905    14302    14341 1
   14906    14303    14304 1
   14907    14303    14342 1
   14908    14303    14343 1
   14909    14304    14305 1
   14910    14304    14344 1
   14911    14304    14345 1
   14912    14305    14306 1
   14913    14305    14346 1
   14914    14305    14347 1
   14915    14306    14307 1
   14916    14306    14313 1
   14917    14306    14348 1
   14918    14307    14308 1
   14919    14307    14349 1
   14920    14307    14350 1
   14921    14308    14309 1
   14922    14308    14351 1
   14923    14308    14352 1
   14924    14309    14310 1
   14925    14309    14353 1
   14926    14309    14354 1
   14927    14310    14311 1
   14928    14310    14355 1
   14929    14310    14356 1
   14930    14311    14312 1
   14931    14311    14357 1
   14932    14311    14358 1
   14933    14312    14359 1
   14934    14312    14360 1
   14935    14312    14361 1
   14936    14313    14314 1
   14937    14313    14362 1
   14938    14313    14363 1
   14939    14314    14315 1
   14940    14315    14316 1
   14941    14315    14364 1
   14942    14315    14365 1
   14943    14316    14317 1
   14944    14316    14323 1
   14945    14316    14366 1
   14946    14317    14318 1
   14947    14317    14367 1
   14948    14317    14368 1
   14949    14318    14319 1
   14950    14318    14369 1
   14951    14318    14370 1
   14952    14319    14320 1
   14953    14319    14371 1
   14954    14319    14372 1
   14955    14320    14321 1
   14956    14320    14373 1
   14957    14320    14374 1
   14958    14321    14322 1
   14959    14321    14375 1
   14960    14321    14376 1
   14961    14322    14377 1
   14962    14322    14378 1
   14963    14322    14379 1
   14964    14323    14324 1
   14965    14323    14380 1
   14966    14323    14381 1
   14967    14324    14325 1
   14968    14324    14382 1
   14969    14324    14383 1
   14970    14325    14326 1
   14971    14325    14384 1
   14972    14325    14385 1
   14973    14326    14327 1
   14974    14326    14386 1
   14975    14326    14387 1
   14976    14327    14328 1
   14977    14327    14388 1
   14978    14327    14389 1
   14979    14328    14329 1
   14980    14328    14390 1
   14981    14328    14391 1
   14982    14329    14330 1
   14983    14329    14392 1
   14984    14329    14393 1
   14985    14330    14394 1
   14986    14330    14395 1
   14987    14330    14396 1
   14988    14397    14398 1
   14989    14397    14404 1
   14990    14397    14436 1
   14991    14398    14399 1
   14992    14398    14402 1
   14993    14399    14400 1
   14994    14399    14403 1
   14995    14400    14401 1
   14996    14401    14402 1
   14997    14401    14412 1
   14998    14402    14408 1
   14999    14403    14404 1
   15000    14403    14407 1
   15001    14404    14405 1
   15002    14405    14406 1
   15003    14405    14409 1
   15004    14406    14407 1
   15005    14410    14411 1
   15006    14410    14418 1
   15007    14411    14412 1
   15008    14411    14419 1
   15009    14412    14413 1
   15010    14413    14414 1
   15011    14413    14417 1
   15012    14414    14415 1
   15013    14415    14416 1
   15014    14416    14417 1
   15015    14417    14418 1
   15016    14418    14528 1
   15017    14420    14421 1
   15018    14420    14453 1
   15019    14420    14454 1
   15020    14420    14455 1
   15021    14421    14422 1
   15022    14421    14456 1
   15023    14421    14457 1
   15024    14422    14423 1
   15025    14422    14458 1
   15026    14422    14459 1
   15027    14423    14424 1
   15028    14423    14460 1
   15029    14423    14461 1
   15030    14424    14425 1
   15031    14424    14462 1
   15032    14424    14463 1
   15033    14425    14426 1
   15034    14425    14464 1
   15035    14425    14465 1
   15036    14426    14427 1
   15037    14426    14466 1
   15038    14426    14467 1
   15039    14427    14428 1
   15040    14427    14468 1
   15041    14427    14469 1
   15042    14428    14429 1
   15043    14428    14435 1
   15044    14428    14470 1
   15045    14429    14430 1
   15046    14429    14471 1
   15047    14429    14472 1
   15048    14430    14431 1
   15049    14430    14473 1
   15050    14430    14474 1
   15051    14431    14432 1
   15052    14431    14475 1
   15053    14431    14476 1
   15054    14432    14433 1
   15055    14432    14477 1
   15056    14432    14478 1
   15057    14433    14434 1
   15058    14433    14479 1
   15059    14433    14480 1
   15060    14434    14481 1
   15061    14434    14482 1
   15062    14434    14483 1
   15063    14435    14436 1
   15064    14435    14484 1
   15065    14435    14485 1
   15066    14436    14437 1
   15067    14437    14438 1
   15068    14437    14486 1
   15069    14437    14487 1
   15070    14438    14439 1
   15071    14438    14445 1
   15072    14438    14488 1
   15073    14439    14440 1
   15074    14439    14489 1
   15075    14439    14490 1
   15076    14440    14441 1
   15077    14440    14491 1
   15078    14440    14492 1
   15079    14441    14442 1
   15080    14441    14493 1
   15081    14441    14494 1
   15082    14442    14443 1
   15083    14442    14495 1
   15084    14442    14496 1
   15085    14443    14444 1
   15086    14443    14497 1
   15087    14443    14498 1
   15088    14444    14499 1
   15089    14444    14500 1
   15090    14444    14501 1
   15091    14445    14446 1
   15092    14445    14502 1
   15093    14445    14503 1
   15094    14446    14447 1
   15095    14446    14504 1
   15096    14446    14505 1
   15097    14447    14448 1
   15098    14447    14506 1
   15099    14447    14507 1
   15100    14448    14449 1
   15101    14448    14508 1
   15102    14448    14509 1
   15103    14449    14450 1
   15104    14449    14510 1
   15105    14449    14511 1
   15106    14450    14451 1
   15107    14450    14512 1
   15108    14450    14513 1
   15109    14451    14452 1
   15110    14451    14514 1
   15111    14451    14515 1
   15112    14452    14516 1
   15113    14452    14517 1
   15114    14452    14518 1
   15115    14519    14520 1
   15116    14519    14526 1
   15117    14519    14558 1
   15118    14520    14521 1
   15119    14520    14524 1
   15120    14521    14522 1
   15121    14521    14525 1
   15122    14522    14523 1
   15123    14523    14524 1
   15124    14523    14534 1
   15125    14524    14530 1
   15126    14525    14526 1
   15127    14525    14529 1
   15128    14526    14527 1
   15129    14527    14528 1
   15130    14527    14531 1
   15131    14528    14529 1
   15132    14532    14533 1
   15133    14532    14540 1
   15134    14533    14534 1
   15135    14533    14541 1
   15136    14534    14535 1
   15137    14535    14536 1
   15138    14535    14539 1
   15139    14536    14537 1
   15140    14537    14538 1
   15141    14538    14539 1
   15142    14539    14540 1
   15143    14540    14650 1
   15144    14542    14543 1
   15145    14542    14575 1
   15146    14542    14576 1
   15147    14542    14577 1
   15148    14543    14544 1
   15149    14543    14578 1
   15150    14543    14579 1
   15151    14544    14545 1
   15152    14544    14580 1
   15153    14544    14581 1
   15154    14545    14546 1
   15155    14545    14582 1
   15156    14545    14583 1
   15157    14546    14547 1
   15158    14546    14584 1
   15159    14546    14585 1
   15160    14547    14548 1
   15161    14547    14586 1
   15162    14547    14587 1
   15163    14548    14549 1
   15164    14548    14588 1
   15165    14548    14589 1
   15166    14549    14550 1
   15167    14549    14590 1
   15168    14549    14591 1
   15169    14550    14551 1
   15170    14550    14557 1
   15171    14550    14592 1
   15172    14551    14552 1
   15173    14551    14593 1
   15174    14551    14594 1
   15175    14552    14553 1
   15176    14552    14595 1
   15177    14552    14596 1
   15178    14553    14554 1
   15179    14553    14597 1
   15180    14553    14598 1
   15181    14554    14555 1
   15182    14554    14599 1
   15183    14554    14600 1
   15184    14555    14556 1
   15185    14555    14601 1
   15186    14555    14602 1
   15187    14556    14603 1
   15188    14556    14604 1
   15189    14556    14605 1
   15190    14557    14558 1
   15191    14557    14606 1
   15192    14557    14607 1
   15193    14558    14559 1
   15194    14559    14560 1
   15195    14559    14608 1
   15196    14559    14609 1
   15197    14560    14561 1
   15198    14560    14567 1
   15199    14560    14610 1
   15200    14561    14562 1
   15201    14561    14611 1
   15202    14561    14612 1
   15203    14562    14563 1
   15204    14562    14613 1
   15205    14562    14614 1
   15206    14563    14564 1
   15207    14563    14615 1
   15208    14563    14616 1
   15209    14564    14565 1
   15210    14564    14617 1
   15211    14564    14618 1
   15212    14565    14566 1
   15213    14565    14619 1
   15214    14565    14620 1
   15215    14566    14621 1
   15216    14566    14622 1
   15217    14566    14623 1
   15218    14567    14568 1
   15219    14567    14624 1
   15220    14567    14625 1
   15221    14568    14569 1
   15222    14568    14626 1
   15223    14568    14627 1
   15224    14569    14570 1
   15225    14569    14628 1
   15226    14569    14629 1
   15227    14570    14571 1
   15228    14570    14630 1
   15229    14570    14631 1
   15230    14571    14572 1
   15231    14571    14632 1
   15232    14571    14633 1
   15233    14572    14573 1
   15234    14572    14634 1
   15235    14572    14635 1
   15236    14573    14574 1
   15237    14573    14636 1
   15238    14573    14637 1
   15239    14574    14638 1
   15240    14574    14639 1
   15241    14574    14640 1
   15242    14641    14642 1
   15243    14641    14648 1
   15244    14641    14680 1
   15245    14642    14643 1
   15246    14642    14646 1
   15247    14643    14644 1
   15248    14643    14647 1
   15249    14644    14645 1
   15250    14645    14646 1
   15251    14645    14656 1
   15252    14646    14652 1
   15253    14647    14648 1
   15254    14647    14651 1
   15255    14648    14649 1
   15256    14649    14650 1
   15257    14649    14653 1
   15258    14650    14651 1
   15259    14654    14655 1
   15260    14654    14662 1
   15261    14655    14656 1
   15262    14655    14663 1
   15263    14656    14657 1
   15264    14657    14658 1
   15265    14657    14661 1
   15266    14658    14659 1
   15267    14659    14660 1
   15268    14660    14661 1
   15269    14661    14662 1
   15270    14662    14772 1
   15271    14664    14665 1
   15272    14664    14697 1
   15273    14664    14698 1
   15274    14664    14699 1
   15275    14665    14666 1
   15276    14665    14700 1
   15277    14665    14701 1
   15278    14666    14667 1
   15279    14666    14702 1
   15280    14666    14703 1
   15281    14667    14668 1
   15282    14667    14704 1
   15283    14667    14705 1
   15284    14668    14669 1
   15285    14668    14706 1
   15286    14668    14707 1
   15287    14669    14670 1
   15288    14669    14708 1
   15289    14669    14709 1
   15290    14670    14671 1
   15291    14670    14710 1
   15292    14670    14711 1
   15293    14671    14672 1
   15294    14671    14712 1
   15295    14671    14713 1
   15296    14672    14673 1
   15297    14672    14679 1
   15298    14672    14714 1
   15299    14673    14674 1
   15300    14673    14715 1
   15301    14673    14716 1
   15302    14674    14675 1
   15303    14674    14717 1
   15304    14674    14718 1
   15305    14675    14676 1
   15306    14675    14719 1
   15307    14675    14720 1
   15308    14676    14677 1
   15309    14676    14721 1
   15310    14676    14722 1
   15311    14677    14678 1
   15312    14677    14723 1
   15313    14677    14724 1
   15314    14678    14725 1
   15315    14678    14726 1
   15316    14678    14727 1
   15317    14679    14680 1
   15318    14679    14728 1
   15319    14679    14729 1
   15320    14680    14681 1
   15321    14681    14682 1
   15322    14681    14730 1
   15323    14681    14731 1
   15324    14682    14683 1
   15325    14682    14689 1
   15326    14682    14732 1
   15327    14683    14684 1
   15328    14683    14733 1
   15329    14683    14734 1
   15330    14684    14685 1
   15331    14684    14735 1
   15332    14684    14736 1
   15333    14685    14686 1
   15334    14685    14737 1
   15335    14685    14738 1
   15336    14686    14687 1
   15337    14686    14739 1
   15338    14686    14740 1
   15339    14687    14688 1
   15340    14687    14741 1
   15341    14687    14742 1
   15342    14688    14743 1
   15343    14688    14744 1
   15344    14688    14745 1
   15345    14689    14690 1
   15346    14689    14746 1
   15347    14689    14747 1
   15348    14690    14691 1
   15349    14690    14748 1
   15350    14690    14749 1
   15351    14691    14692 1
   15352    14691    14750 1
   15353    14691    14751 1
   15354    14692    14693 1
   15355    14692    14752 1
   15356    14692    14753 1
   15357    14693    14694 1
   15358    14693    14754 1
   15359    14693    14755 1
   15360    14694    14695 1
   15361    14694    14756 1
   15362    14694    14757 1
   15363    14695    14696 1
   15364    14695    14758 1
   15365    14695    14759 1
   15366    14696    14760 1
   15367    14696    14761 1
   15368    14696    14762 1
   15369    14763    14764 1
   15370    14763    14770 1
   15371    14763    14802 1
   15372    14764    14765 1
   15373    14764    14768 1
   15374    14765    14766 1
   15375    14765    14769 1
   15376    14766    14767 1
   15377    14767    14768 1
   15378    14767    14778 1
   15379    14768    14774 1
   15380    14769    14770 1
   15381    14769    14773 1
   15382    14770    14771 1
   15383    14771    14772 1
   15384    14771    14775 1
   15385    14772    14773 1
   15386    14776    14777 1
   15387    14776    14784 1
   15388    14777    14778 1
   15389    14777    14785 1
   15390    14778    14779 1
   15391    14779    14780 1
   15392    14779    14783 1
   15393    14780    14781 1
   15394    14781    14782 1
   15395    14782    14783 1
   15396    14783    14784 1
   15397    14784    14894 1
   15398    14786    14787 1
   15399    14786    14819 1
   15400    14786    14820 1
   15401    14786    14821 1
   15402    14787    14788 1
   15403    14787    14822 1
   15404    14787    14823 1
   15405    14788    14789 1
   15406    14788    14824 1
   15407    14788    14825 1
   15408    14789    14790 1
   15409    14789    14826 1
   15410    14789    14827 1
   15411    14790    14791 1
   15412    14790    14828 1
   15413    14790    14829 1
   15414    14791    14792 1
   15415    14791    14830 1
   15416    14791    14831 1
   15417    14792    14793 1
   15418    14792    14832 1
   15419    14792    14833 1
   15420    14793    14794 1
   15421    14793    14834 1
   15422    14793    14835 1
   15423    14794    14795 1
   15424    14794    14801 1
   15425    14794    14836 1
   15426    14795    14796 1
   15427    14795    14837 1
   15428    14795    14838 1
   15429    14796    14797 1
   15430    14796    14839 1
   15431    14796    14840 1
   15432    14797    14798 1
   15433    14797    14841 1
   15434    14797    14842 1
   15435    14798    14799 1
   15436    14798    14843 1
   15437    14798    14844 1
   15438    14799    14800 1
   15439    14799    14845 1
   15440    14799    14846 1
   15441    14800    14847 1
   15442    14800    14848 1
   15443    14800    14849 1
   15444    14801    14802 1
   15445    14801    14850 1
   15446    14801    14851 1
   15447    14802    14803 1
   15448    14803    14804 1
   15449    14803    14852 1
   15450    14803    14853 1
   15451    14804    14805 1
   15452    14804    14811 1
   15453    14804    14854 1
   15454    14805    14806 1
   15455    14805    14855 1
   15456    14805    14856 1
   15457    14806    14807 1
   15458    14806    14857 1
   15459    14806    14858 1
   15460    14807    14808 1
   15461    14807    14859 1
   15462    14807    14860 1
   15463    14808    14809 1
   15464    14808    14861 1
   15465    14808    14862 1
   15466    14809    14810 1
   15467    14809    14863 1
   15468    14809    14864 1
   15469    14810    14865 1
   15470    14810    14866 1
   15471    14810    14867 1
   15472    14811    14812 1
   15473    14811    14868 1
   15474    14811    14869 1
   15475    14812    14813 1
   15476    14812    14870 1
   15477    14812    14871 1
   15478    14813    14814 1
   15479    14813    14872 1
   15480    14813    14873 1
   15481    14814    14815 1
   15482    14814    14874 1
   15483    14814    14875 1
   15484    14815    14816 1
   15485    14815    14876 1
   15486    14815    14877 1
   15487    14816    14817 1
   15488    14816    14878 1
   15489    14816    14879 1
   15490    14817    14818 1
   15491    14817    14880 1
   15492    14817    14881 1
   15493    14818    14882 1
   15494    14818    14883 1
   15495    14818    14884 1
   15496    14885    14886 1
   15497    14885    14892 1
   15498    14885    14924 1
   15499    14886    14887 1
   15500    14886    14890 1
   15501    14887    14888 1
   15502    14887    14891 1
   15503    14888    14889 1
   15504    14889    14890 1
   15505    14889    14900 1
   15506    14890    14896 1
   15507    14891    14892 1
   15508    14891    14895 1
   15509    14892    14893 1
   15510    14893    14894 1
   15511    14893    14897 1
   15512    14894    14895 1
   15513    14898    14899 1
   15514    14898    14906 1
   15515    14899    14900 1
   15516    14899    14907 1
   15517    14900    14901 1
   15518    14901    14902 1
   15519    14901    14905 1
   15520    14902    14903 1
   15521    14903    14904 1
   15522    14904    14905 1
   15523    14905    14906 1
   15524    14906    15016 1
   15525    14908    14909 1
   15526    14908    14941 1
   15527    14908    14942 1
   15528    14908    14943 1
   15529    14909    14910 1
   15530    14909    14944 1
   15531    14909    14945 1
   15532    14910    14911 1
   15533    14910    14946 1
   15534    14910    14947 1
   15535    14911    14912 1
   15536    14911    14948 1
   15537    14911    14949 1
   15538    14912    14913 1
   15539    14912    14950 1
   15540    14912    14951 1
   15541    14913    14914 1
   15542    14913    14952 1
   15543    14913    14953 1
   15544    14914    14915 1
   15545    14914    14954 1
   15546    14914    14955 1
   15547    14915    14916 1
   15548    14915    14956 1
   15549    14915    14957 1
   15550    14916    14917 1
   15551    14916    14923 1
   15552    14916    14958 1
   15553    14917    14918 1
   15554    14917    14959 1
   15555    14917    14960 1
   15556    14918    14919 1
   15557    14918    14961 1
   15558    14918    14962 1
   15559    14919    14920 1
   15560    14919    14963 1
   15561    14919    14964 1
   15562    14920    14921 1
   15563    14920    14965 1
   15564    14920    14966 1
   15565    14921    14922 1
   15566    14921    14967 1
   15567    14921    14968 1
   15568    14922    14969 1
   15569    14922    14970 1
   15570    14922    14971 1
   15571    14923    14924 1
   15572    14923    14972 1
   15573    14923    14973 1
   15574    14924    14925 1
   15575    14925    14926 1
   15576    14925    14974 1
   15577    14925    14975 1
   15578    14926    14927 1
   15579    14926    14933 1
   15580    14926    14976 1
   15581    14927    14928 1
   15582    14927    14977 1
   15583    14927    14978 1
   15584    14928    14929 1
   15585    14928    14979 1
   15586    14928    14980 1
   15587    14929    14930 1
   15588    14929    14981 1
   15589    14929    14982 1
   15590    14930    14931 1
   15591    14930    14983 1
   15592    14930    14984 1
   15593    14931    14932 1
   15594    14931    14985 1
   15595    14931    14986 1
   15596    14932    14987 1
   15597    14932    14988 1
   15598    14932    14989 1
   15599    14933    14934 1
   15600    14933    14990 1
   15601    14933    14991 1
   15602    14934    14935 1
   15603    14934    14992 1
   15604    14934    14993 1
   15605    14935    14936 1
   15606    14935    14994 1
   15607    14935    14995 1
   15608    14936    14937 1
   15609    14936    14996 1
   15610    14936    14997 1
   15611    14937    14938 1
   15612    14937    14998 1
   15613    14937    14999 1
   15614    14938    14939 1
   15615    14938    15000 1
   15616    14938    15001 1
   15617    14939    14940 1
   15618    14939    15002 1
   15619    14939    15003 1
   15620    14940    15004 1
   15621    14940    15005 1
   15622    14940    15006 1
   15623    15007    15008 1
   15624    15007    15014 1
   15625    15007    15046 1
   15626    15008    15009 1
   15627    15008    15012 1
   15628    15009    15010 1
   15629    15009    15013 1
   15630    15010    15011 1
   15631    15011    15012 1
   15632    15011    15022 1
   15633    15012    15018 1
   15634    15013    15014 1
   15635    15013    15017 1
   15636    15014    15015 1
   15637    15015    15016 1
   15638    15015    15019 1
   15639    15016    15017 1
   15640    15020    15021 1
   15641    15020    15028 1
   15642    15021    15022 1
   15643    15021    15029 1
   15644    15022    15023 1
   15645    15023    15024 1
   15646    15023    15027 1
   15647    15024    15025 1
   15648    15025    15026 1
   15649    15026    15027 1
   15650    15027    15028 1
   15651    15028    15138 1
   15652    15030    15031 1
   15653    15030    15063 1
   15654    15030    15064 1
   15655    15030    15065 1
   15656    15031    15032 1
   15657    15031    15066 1
   15658    15031    15067 1
   15659    15032    15033 1
   15660    15032    15068 1
   15661    15032    15069 1
   15662    15033    15034 1
   15663    15033    15070 1
   15664    15033    15071 1
   15665    15034    15035 1
   15666    15034    15072 1
   15667    15034    15073 1
   15668    15035    15036 1
   15669    15035    15074 1
   15670    15035    15075 1
   15671    15036    15037 1
   15672    15036    15076 1
   15673    15036    15077 1
   15674    15037    15038 1
   15675    15037    15078 1
   15676    15037    15079 1
   15677    15038    15039 1
   15678    15038    15045 1
   15679    15038    15080 1
   15680    15039    15040 1
   15681    15039    15081 1
   15682    15039    15082 1
   15683    15040    15041 1
   15684    15040    15083 1
   15685    15040    15084 1
   15686    15041    15042 1
   15687    15041    15085 1
   15688    15041    15086 1
   15689    15042    15043 1
   15690    15042    15087 1
   15691    15042    15088 1
   15692    15043    15044 1
   15693    15043    15089 1
   15694    15043    15090 1
   15695    15044    15091 1
   15696    15044    15092 1
   15697    15044    15093 1
   15698    15045    15046 1
   15699    15045    15094 1
   15700    15045    15095 1
   15701    15046    15047 1
   15702    15047    15048 1
   15703    15047    15096 1
   15704    15047    15097 1
   15705    15048    15049 1
   15706    15048    15055 1
   15707    15048    15098 1
   15708    15049    15050 1
   15709    15049    15099 1
   15710    15049    15100 1
   15711    15050    15051 1
   15712    15050    15101 1
   15713    15050    15102 1
   15714    15051    15052 1
   15715    15051    15103 1
   15716    15051    15104 1
   15717    15052    15053 1
   15718    15052    15105 1
   15719    15052    15106 1
   15720    15053    15054 1
   15721    15053    15107 1
   15722    15053    15108 1
   15723    15054    15109 1
   15724    15054    15110 1
   15725    15054    15111 1
   15726    15055    15056 1
   15727    15055    15112 1
   15728    15055    15113 1
   15729    15056    15057 1
   15730    15056    15114 1
   15731    15056    15115 1
   15732    15057    15058 1
   15733    15057    15116 1
   15734    15057    15117 1
   15735    15058    15059 1
   15736    15058    15118 1
   15737    15058    15119 1
   15738    15059    15060 1
   15739    15059    15120 1
   15740    15059    15121 1
   15741    15060    15061 1
   15742    15060    15122 1
   15743    15060    15123 1
   15744    15061    15062 1
   15745    15061    15124 1
   15746    15061    15125 1
   15747    15062    15126 1
   15748    15062    15127 1
   15749    15062    15128 1
   15750    15129    15130 1
   15751    15129    15136 1
   15752    15129    15168 1
   15753    15130    15131 1
   15754    15130    15134 1
   15755    15131    15132 1
   15756    15131    15135 1
   15757    15132    15133 1
   15758    15133    15134 1
   15759    15133    15144 1
   15760    15134    15140 1
   15761    15135    15136 1
   15762    15135    15139 1
   15763    15136    15137 1
   15764    15137    15138 1
   15765    15137    15141 1
   15766    15138    15139 1
   15767    15142    15143 1
   15768    15142    15150 1
   15769    15143    15144 1
   15770    15143    15151 1
   15771    15144    15145 1
   15772    15145    15146 1
   15773    15145    15149 1
   15774    15146    15147 1
   15775    15147    15148 1
   15776    15148    15149 1
   15777    15149    15150 1
   15778    15150    15260 1
   15779    15152    15153 1
   15780    15152    15185 1
   15781    15152    15186 1
   15782    15152    15187 1
   15783    15153    15154 1
   15784    15153    15188 1
   15785    15153    15189 1
   15786    15154    15155 1
   15787    15154    15190 1
   15788    15154    15191 1
   15789    15155    15156 1
   15790    15155    15192 1
   15791    15155    15193 1
   15792    15156    15157 1
   15793    15156    15194 1
   15794    15156    15195 1
   15795    15157    15158 1
   15796    15157    15196 1
   15797    15157    15197 1
   15798    15158    15159 1
   15799    15158    15198 1
   15800    15158    15199 1
   15801    15159    15160 1
   15802    15159    15200 1
   15803    15159    15201 1
   15804    15160    15161 1
   15805    15160    15167 1
   15806    15160    15202 1
   15807    15161    15162 1
   15808    15161    15203 1
   15809    15161    15204 1
   15810    15162    15163 1
   15811    15162    15205 1
   15812    15162    15206 1
   15813    15163    15164 1
   15814    15163    15207 1
   15815    15163    15208 1
   15816    15164    15165 1
   15817    15164    15209 1
   15818    15164    15210 1
   15819    15165    15166 1
   15820    15165    15211 1
   15821    15165    15212 1
   15822    15166    15213 1
   15823    15166    15214 1
   15824    15166    15215 1
   15825    15167    15168 1
   15826    15167    15216 1
   15827    15167    15217 1
   15828    15168    15169 1
   15829    15169    15170 1
   15830    15169    15218 1
   15831    15169    15219 1
   15832    15170    15171 1
   15833    15170    15177 1
   15834    15170    15220 1
   15835    15171    15172 1
   15836    15171    15221 1
   15837    15171    15222 1
   15838    15172    15173 1
   15839    15172    15223 1
   15840    15172    15224 1
   15841    15173    15174 1
   15842    15173    15225 1
   15843    15173    15226 1
   15844    15174    15175 1
   15845    15174    15227 1
   15846    15174    15228 1
   15847    15175    15176 1
   15848    15175    15229 1
   15849    15175    15230 1
   15850    15176    15231 1
   15851    15176    15232 1
   15852    15176    15233 1
   15853    15177    15178 1
   15854    15177    15234 1
   15855    15177    15235 1
   15856    15178    15179 1
   15857    15178    15236 1
   15858    15178    15237 1
   15859    15179    15180 1
   15860    15179    15238 1
   15861    15179    15239 1
   15862    15180    15181 1
   15863    15180    15240 1
   15864    15180    15241 1
   15865    15181    15182 1
   15866    15181    15242 1
   15867    15181    15243 1
   15868    15182    15183 1
   15869    15182    15244 1
   15870    15182    15245 1
   15871    15183    15184 1
   15872    15183    15246 1
   15873    15183    15247 1
   15874    15184    15248 1
   15875    15184    15249 1
   15876    15184    15250 1
   15877    15251    15252 1
   15878    15251    15258 1
   15879    15251    15290 1
   15880    15252    15253 1
   15881    15252    15256 1
   15882    15253    15254 1
   15883    15253    15257 1
   15884    15254    15255 1
   15885    15255    15256 1
   15886    15255    15266 1
   15887    15256    15262 1
   15888    15257    15258 1
   15889    15257    15261 1
   15890    15258    15259 1
   15891    15259    15260 1
   15892    15259    15263 1
   15893    15260    15261 1
   15894    15264    15265 1
   15895    15264    15272 1
   15896    15265    15266 1
   15897    15265    15273 1
   15898    15266    15267 1
   15899    15267    15268 1
   15900    15267    15271 1
   15901    15268    15269 1
   15902    15269    15270 1
   15903    15270    15271 1
   15904    15271    15272 1
   15905    15272    15382 1
   15906    15274    15275 1
   15907    15274    15307 1
   15908    15274    15308 1
   15909    15274    15309 1
   15910    15275    15276 1
   15911    15275    15310 1
   15912    15275    15311 1
   15913    15276    15277 1
   15914    15276    15312 1
   15915    15276    15313 1
   15916    15277    15278 1
   15917    15277    15314 1
   15918    15277    15315 1
   15919    15278    15279 1
   15920    15278    15316 1
   15921    15278    15317 1
   15922    15279    15280 1
   15923    15279    15318 1
   15924    15279    15319 1
   15925    15280    15281 1
   15926    15280    15320 1
   15927    15280    15321 1
   15928    15281    15282 1
   15929    15281    15322 1
   15930    15281    15323 1
   15931    15282    15283 1
   15932    15282    15289 1
   15933    15282    15324 1
   15934    15283    15284 1
   15935    15283    15325 1
   15936    15283    15326 1
   15937    15284    15285 1
   15938    15284    15327 1
   15939    15284    15328 1
   15940    15285    15286 1
   15941    15285    15329 1
   15942    15285    15330 1
   15943    15286    15287 1
   15944    15286    15331 1
   15945    15286    15332 1
   15946    15287    15288 1
   15947    15287    15333 1
   15948    15287    15334 1
   15949    15288    15335 1
   15950    15288    15336 1
   15951    15288    15337 1
   15952    15289    15290 1
   15953    15289    15338 1
   15954    15289    15339 1
   15955    15290    15291 1
   15956    15291    15292 1
   15957    15291    15340 1
   15958    15291    15341 1
   15959    15292    15293 1
   15960    15292    15299 1
   15961    15292    15342 1
   15962    15293    15294 1
   15963    15293    15343 1
   15964    15293    15344 1
   15965    15294    15295 1
   15966    15294    15345 1
   15967    15294    15346 1
   15968    15295    15296 1
   15969    15295    15347 1
   15970    15295    15348 1
   15971    15296    15297 1
   15972    15296    15349 1
   15973    15296    15350 1
   15974    15297    15298 1
   15975    15297    15351 1
   15976    15297    15352 1
   15977    15298    15353 1
   15978    15298    15354 1
   15979    15298    15355 1
   15980    15299    15300 1
   15981    15299    15356 1
   15982    15299    15357 1
   15983    15300    15301 1
   15984    15300    15358 1
   15985    15300    15359 1
   15986    15301    15302 1
   15987    15301    15360 1
   15988    15301    15361 1
   15989    15302    15303 1
   15990    15302    15362 1
   15991    15302    15363 1
   15992    15303    15304 1
   15993    15303    15364 1
   15994    15303    15365 1
   15995    15304    15305 1
   15996    15304    15366 1
   15997    15304    15367 1
   15998    15305    15306 1
   15999    15305    15368 1
   16000    15305    15369 1
   16001    15306    15370 1
   16002    15306    15371 1
   16003    15306    15372 1
   16004    15373    15374 1
   16005    15373    15380 1
   16006    15373    15412 1
   16007    15374    15375 1
   16008    15374    15378 1
   16009    15375    15376 1
   16010    15375    15379 1
   16011    15376    15377 1
   16012    15377    15378 1
   16013    15377    15388 1
   16014    15378    15384 1
   16015    15379    15380 1
   16016    15379    15383 1
   16017    15380    15381 1
   16018    15381    15382 1
   16019    15381    15385 1
   16020    15382    15383 1
   16021    15386    15387 1
   16022    15386    15394 1
   16023    15387    15388 1
   16024    15387    15395 1
   16025    15388    15389 1
   16026    15389    15390 1
   16027    15389    15393 1
   16028    15390    15391 1
   16029    15391    15392 1
   16030    15392    15393 1
   16031    15393    15394 1
   16032    15394    15504 1
   16033    15396    15397 1
   16034    15396    15429 1
   16035    15396    15430 1
   16036    15396    15431 1
   16037    15397    15398 1
   16038    15397    15432 1
   16039    15397    15433 1
   16040    15398    15399 1
   16041    15398    15434 1
   16042    15398    15435 1
   16043    15399    15400 1
   16044    15399    15436 1
   16045    15399    15437 1
   16046    15400    15401 1
   16047    15400    15438 1
   16048    15400    15439 1
   16049    15401    15402 1
   16050    15401    15440 1
   16051    15401    15441 1
   16052    15402    15403 1
   16053    15402    15442 1
   16054    15402    15443 1
   16055    15403    15404 1
   16056    15403    15444 1
   16057    15403    15445 1
   16058    15404    15405 1
   16059    15404    15411 1
   16060    15404    15446 1
   16061    15405    15406 1
   16062    15405    15447 1
   16063    15405    15448 1
   16064    15406    15407 1
   16065    15406    15449 1
   16066    15406    15450 1
   16067    15407    15408 1
   16068    15407    15451 1
   16069    15407    15452 1
   16070    15408    15409 1
   16071    15408    15453 1
   16072    15408    15454 1
   16073    15409    15410 1
   16074    15409    15455 1
   16075    15409    15456 1
   16076    15410    15457 1
   16077    15410    15458 1
   16078    15410    15459 1
   16079    15411    15412 1
   16080    15411    15460 1
   16081    15411    15461 1
   16082    15412    15413 1
   16083    15413    15414 1
   16084    15413    15462 1
   16085    15413    15463 1
   16086    15414    15415 1
   16087    15414    15421 1
   16088    15414    15464 1
   16089    15415    15416 1
   16090    15415    15465 1
   16091    15415    15466 1
   16092    15416    15417 1
   16093    15416    15467 1
   16094    15416    15468 1
   16095    15417    15418 1
   16096    15417    15469 1
   16097    15417    15470 1
   16098    15418    15419 1
   16099    15418    15471 1
   16100    15418    15472 1
   16101    15419    15420 1
   16102    15419    15473 1
   16103    15419    15474 1
   16104    15420    15475 1
   16105    15420    15476 1
   16106    15420    15477 1
   16107    15421    15422 1
   16108    15421    15478 1
   16109    15421    15479 1
   16110    15422    15423 1
   16111    15422    15480 1
   16112    15422    15481 1
   16113    15423    15424 1
   16114    15423    15482 1
   16115    15423    15483 1
   16116    15424    15425 1
   16117    15424    15484 1
   16118    15424    15485 1
   16119    15425    15426 1
   16120    15425    15486 1
   16121    15425    15487 1
   16122    15426    15427 1
   16123    15426    15488 1
   16124    15426    15489 1
   16125    15427    15428 1
   16126    15427    15490 1
   16127    15427    15491 1
   16128    15428    15492 1
   16129    15428    15493 1
   16130    15428    15494 1
   16131    15495    15496 1
   16132    15495    15502 1
   16133    15495    15534 1
   16134    15496    15497 1
   16135    15496    15500 1
   16136    15497    15498 1
   16137    15497    15501 1
   16138    15498    15499 1
   16139    15499    15500 1
   16140    15499    15510 1
   16141    15500    15506 1
   16142    15501    15502 1
   16143    15501    15505 1
   16144    15502    15503 1
   16145    15503    15504 1
   16146    15503    15507 1
   16147    15504    15505 1
   16148    15508    15509 1
   16149    15508    15516 1
   16150    15509    15510 1
   16151    15509    15517 1
   16152    15510    15511 1
   16153    15511    15512 1
   16154    15511    15515 1
   16155    15512    15513 1
   16156    15513    15514 1
   16157    15514    15515 1
   16158    15515    15516 1
   16159    15516    15626 1
   16160    15518    15519 1
   16161    15518    15551 1
   16162    15518    15552 1
   16163    15518    15553 1
   16164    15519    15520 1
   16165    15519    15554 1
   16166    15519    15555 1
   16167    15520    15521 1
   16168    15520    15556 1
   16169    15520    15557 1
   16170    15521    15522 1
   16171    15521    15558 1
   16172    15521    15559 1
   16173    15522    15523 1
   16174    15522    15560 1
   16175    15522    15561 1
   16176    15523    15524 1
   16177    15523    15562 1
   16178    15523    15563 1
   16179    15524    15525 1
   16180    15524    15564 1
   16181    15524    15565 1
   16182    15525    15526 1
   16183    15525    15566 1
   16184    15525    15567 1
   16185    15526    15527 1
   16186    15526    15533 1
   16187    15526    15568 1
   16188    15527    15528 1
   16189    15527    15569 1
   16190    15527    15570 1
   16191    15528    15529 1
   16192    15528    15571 1
   16193    15528    15572 1
   16194    15529    15530 1
   16195    15529    15573 1
   16196    15529    15574 1
   16197    15530    15531 1
   16198    15530    15575 1
   16199    15530    15576 1
   16200    15531    15532 1
   16201    15531    15577 1
   16202    15531    15578 1
   16203    15532    15579 1
   16204    15532    15580 1
   16205    15532    15581 1
   16206    15533    15534 1
   16207    15533    15582 1
   16208    15533    15583 1
   16209    15534    15535 1
   16210    15535    15536 1
   16211    15535    15584 1
   16212    15535    15585 1
   16213    15536    15537 1
   16214    15536    15543 1
   16215    15536    15586 1
   16216    15537    15538 1
   16217    15537    15587 1
   16218    15537    15588 1
   16219    15538    15539 1
   16220    15538    15589 1
   16221    15538    15590 1
   16222    15539    15540 1
   16223    15539    15591 1
   16224    15539    15592 1
   16225    15540    15541 1
   16226    15540    15593 1
   16227    15540    15594 1
   16228    15541    15542 1
   16229    15541    15595 1
   16230    15541    15596 1
   16231    15542    15597 1
   16232    15542    15598 1
   16233    15542    15599 1
   16234    15543    15544 1
   16235    15543    15600 1
   16236    15543    15601 1
   16237    15544    15545 1
   16238    15544    15602 1
   16239    15544    15603 1
   16240    15545    15546 1
   16241    15545    15604 1
   16242    15545    15605 1
   16243    15546    15547 1
   16244    15546    15606 1
   16245    15546    15607 1
   16246    15547    15548 1
   16247    15547    15608 1
   16248    15547    15609 1
   16249    15548    15549 1
   16250    15548    15610 1
   16251    15548    15611 1
   16252    15549    15550 1
   16253    15549    15612 1
   16254    15549    15613 1
   16255    15550    15614 1
   16256    15550    15615 1
   16257    15550    15616 1
   16258    15617    15618 1
   16259    15617    15624 1
   16260    15617    15656 1
   16261    15618    15619 1
   16262    15618    15622 1
   16263    15619    15620 1
   16264    15619    15623 1
   16265    15620    15621 1
   16266    15621    15622 1
   16267    15621    15632 1
   16268    15622    15628 1
   16269    15623    15624 1
   16270    15623    15627 1
   16271    15624    15625 1
   16272    15625    15626 1
   16273    15625    15629 1
   16274    15626    15627 1
   16275    15630    15631 1
   16276    15630    15638 1
   16277    15631    15632 1
   16278    15631    15639 1
   16279    15632    15633 1
   16280    15633    15634 1
   16281    15633    15637 1
   16282    15634    15635 1
   16283    15635    15636 1
   16284    15636    15637 1
   16285    15637    15638 1
   16286    15638    15748 1
   16287    15640    15641 1
   16288    15640    15673 1
   16289    15640    15674 1
   16290    15640    15675 1
   16291    15641    15642 1
   16292    15641    15676 1
   16293    15641    15677 1
   16294    15642    15643 1
   16295    15642    15678 1
   16296    15642    15679 1
   16297    15643    15644 1
   16298    15643    15680 1
   16299    15643    15681 1
   16300    15644    15645 1
   16301    15644    15682 1
   16302    15644    15683 1
   16303    15645    15646 1
   16304    15645    15684 1
   16305    15645    15685 1
   16306    15646    15647 1
   16307    15646    15686 1
   16308    15646    15687 1
   16309    15647    15648 1
   16310    15647    15688 1
   16311    15647    15689 1
   16312    15648    15649 1
   16313    15648    15655 1
   16314    15648    15690 1
   16315    15649    15650 1
   16316    15649    15691 1
   16317    15649    15692 1
   16318    15650    15651 1
   16319    15650    15693 1
   16320    15650    15694 1
   16321    15651    15652 1
   16322    15651    15695 1
   16323    15651    15696 1
   16324    15652    15653 1
   16325    15652    15697 1
   16326    15652    15698 1
   16327    15653    15654 1
   16328    15653    15699 1
   16329    15653    15700 1
   16330    15654    15701 1
   16331    15654    15702 1
   16332    15654    15703 1
   16333    15655    15656 1
   16334    15655    15704 1
   16335    15655    15705 1
   16336    15656    15657 1
   16337    15657    15658 1
   16338    15657    15706 1
   16339    15657    15707 1
   16340    15658    15659 1
   16341    15658    15665 1
   16342    15658    15708 1
   16343    15659    15660 1
   16344    15659    15709 1
   16345    15659    15710 1
   16346    15660    15661 1
   16347    15660    15711 1
   16348    15660    15712 1
   16349    15661    15662 1
   16350    15661    15713 1
   16351    15661    15714 1
   16352    15662    15663 1
   16353    15662    15715 1
   16354    15662    15716 1
   16355    15663    15664 1
   16356    15663    15717 1
   16357    15663    15718 1
   16358    15664    15719 1
   16359    15664    15720 1
   16360    15664    15721 1
   16361    15665    15666 1
   16362    15665    15722 1
   16363    15665    15723 1
   16364    15666    15667 1
   16365    15666    15724 1
   16366    15666    15725 1
   16367    15667    15668 1
   16368    15667    15726 1
   16369    15667    15727 1
   16370    15668    15669 1
   16371    15668    15728 1
   16372    15668    15729 1
   16373    15669    15670 1
   16374    15669    15730 1
   16375    15669    15731 1
   16376    15670    15671 1
   16377    15670    15732 1
   16378    15670    15733 1
   16379    15671    15672 1
   16380    15671    15734 1
   16381    15671    15735 1
   16382    15672    15736 1
   16383    15672    15737 1
   16384    15672    15738 1
   16385    15739    15740 1
   16386    15739    15746 1
   16387    15739    15778 1
   16388    15740    15741 1
   16389    15740    15744 1
   16390    15741    15742 1
   16391    15741    15745 1
   16392    15742    15743 1
   16393    15743    15744 1
   16394    15743    15754 1
   16395    15744    15750 1
   16396    15745    15746 1
   16397    15745    15749 1
   16398    15746    15747 1
   16399    15747    15748 1
   16400    15747    15751 1
   16401    15748    15749 1
   16402    15752    15753 1
   16403    15752    15760 1
   16404    15753    15754 1
   16405    15753    15761 1
   16406    15754    15755 1
   16407    15755    15756 1
   16408    15755    15759 1
   16409    15756    15757 1
   16410    15757    15758 1
   16411    15758    15759 1
   16412    15759    15760 1
   16413    15760    15870 1
   16414    15762    15763 1
   16415    15762    15795 1
   16416    15762    15796 1
   16417    15762    15797 1
   16418    15763    15764 1
   16419    15763    15798 1
   16420    15763    15799 1
   16421    15764    15765 1
   16422    15764    15800 1
   16423    15764    15801 1
   16424    15765    15766 1
   16425    15765    15802 1
   16426    15765    15803 1
   16427    15766    15767 1
   16428    15766    15804 1
   16429    15766    15805 1
   16430    15767    15768 1
   16431    15767    15806 1
   16432    15767    15807 1
   16433    15768    15769 1
   16434    15768    15808 1
   16435    15768    15809 1
   16436    15769    15770 1
   16437    15769    15810 1
   16438    15769    15811 1
   16439    15770    15771 1
   16440    15770    15777 1
   16441    15770    15812 1
   16442    15771    15772 1
   16443    15771    15813 1
   16444    15771    15814 1
   16445    15772    15773 1
   16446    15772    15815 1
   16447    15772    15816 1
   16448    15773    15774 1
   16449    15773    15817 1
   16450    15773    15818 1
   16451    15774    15775 1
   16452    15774    15819 1
   16453    15774    15820 1
   16454    15775    15776 1
   16455    15775    15821 1
   16456    15775    15822 1
   16457    15776    15823 1
   16458    15776    15824 1
   16459    15776    15825 1
   16460    15777    15778 1
   16461    15777    15826 1
   16462    15777    15827 1
   16463    15778    15779 1
   16464    15779    15780 1
   16465    15779    15828 1
   16466    15779    15829 1
   16467    15780    15781 1
   16468    15780    15787 1
   16469    15780    15830 1
   16470    15781    15782 1
   16471    15781    15831 1
   16472    15781    15832 1
   16473    15782    15783 1
   16474    15782    15833 1
   16475    15782    15834 1
   16476    15783    15784 1
   16477    15783    15835 1
   16478    15783    15836 1
   16479    15784    15785 1
   16480    15784    15837 1
   16481    15784    15838 1
   16482    15785    15786 1
   16483    15785    15839 1
   16484    15785    15840 1
   16485    15786    15841 1
   16486    15786    15842 1
   16487    15786    15843 1
   16488    15787    15788 1
   16489    15787    15844 1
   16490    15787    15845 1
   16491    15788    15789 1
   16492    15788    15846 1
   16493    15788    15847 1
   16494    15789    15790 1
   16495    15789    15848 1
   16496    15789    15849 1
   16497    15790    15791 1
   16498    15790    15850 1
   16499    15790    15851 1
   16500    15791    15792 1
   16501    15791    15852 1
   16502    15791    15853 1
   16503    15792    15793 1
   16504    15792    15854 1
   16505    15792    15855 1
   16506    15793    15794 1
   16507    15793    15856 1
   16508    15793    15857 1
   16509    15794    15858 1
   16510    15794    15859 1
   16511    15794    15860 1
   16512    15861    15862 1
   16513    15861    15868 1
   16514    15861    15900 1
   16515    15862    15863 1
   16516    15862    15866 1
   16517    15863    15864 1
   16518    15863    15867 1
   16519    15864    15865 1
   16520    15865    15866 1
   16521    15865    15876 1
   16522    15866    15872 1
   16523    15867    15868 1
   16524    15867    15871 1
   16525    15868    15869 1
   16526    15869    15870 1
   16527    15869    15873 1
   16528    15870    15871 1
   16529    15874    15875 1
   16530    15874    15882 1
   16531    15875    15876 1
   16532    15875    15883 1
   16533    15876    15877 1
   16534    15877    15878 1
   16535    15877    15881 1
   16536    15878    15879 1
   16537    15879    15880 1
   16538    15880    15881 1
   16539    15881    15882 1
   16540    15882    15992 1
   16541    15884    15885 1
   16542    15884    15917 1
   16543    15884    15918 1
   16544    15884    15919 1
   16545    15885    15886 1
   16546    15885    15920 1
   16547    15885    15921 1
   16548    15886    15887 1
   16549    15886    15922 1
   16550    15886    15923 1
   16551    15887    15888 1
   16552    15887    15924 1
   16553    15887    15925 1
   16554    15888    15889 1
   16555    15888    15926 1
   16556    15888    15927 1
   16557    15889    15890 1
   16558    15889    15928 1
   16559    15889    15929 1
   16560    15890    15891 1
   16561    15890    15930 1
   16562    15890    15931 1
   16563    15891    15892 1
   16564    15891    15932 1
   16565    15891    15933 1
   16566    15892    15893 1
   16567    15892    15899 1
   16568    15892    15934 1
   16569    15893    15894 1
   16570    15893    15935 1
   16571    15893    15936 1
   16572    15894    15895 1
   16573    15894    15937 1
   16574    15894    15938 1
   16575    15895    15896 1
   16576    15895    15939 1
   16577    15895    15940 1
   16578    15896    15897 1
   16579    15896    15941 1
   16580    15896    15942 1
   16581    15897    15898 1
   16582    15897    15943 1
   16583    15897    15944 1
   16584    15898    15945 1
   16585    15898    15946 1
   16586    15898    15947 1
   16587    15899    15900 1
   16588    15899    15948 1
   16589    15899    15949 1
   16590    15900    15901 1
   16591    15901    15902 1
   16592    15901    15950 1
   16593    15901    15951 1
   16594    15902    15903 1
   16595    15902    15909 1
   16596    15902    15952 1
   16597    15903    15904 1
   16598    15903    15953 1
   16599    15903    15954 1
   16600    15904    15905 1
   16601    15904    15955 1
   16602    15904    15956 1
   16603    15905    15906 1
   16604    15905    15957 1
   16605    15905    15958 1
   16606    15906    15907 1
   16607    15906    15959 1
   16608    15906    15960 1
   16609    15907    15908 1
   16610    15907    15961 1
   16611    15907    15962 1
   16612    15908    15963 1
   16613    15908    15964 1
   16614    15908    15965 1
   16615    15909    15910 1
   16616    15909    15966 1
   16617    15909    15967 1
   16618    15910    15911 1
   16619    15910    15968 1
   16620    15910    15969 1
   16621    15911    15912 1
   16622    15911    15970 1
   16623    15911    15971 1
   16624    15912    15913 1
   16625    15912    15972 1
   16626    15912    15973 1
   16627    15913    15914 1
   16628    15913    15974 1
   16629    15913    15975 1
   16630    15914    15915 1
   16631    15914    15976 1
   16632    15914    15977 1
   16633    15915    15916 1
   16634    15915    15978 1
   16635    15915    15979 1
   16636    15916    15980 1
   16637    15916    15981 1
   16638    15916    15982 1
   16639    15983    15984 1
   16640    15983    15990 1
   16641    15983    16022 1
   16642    15984    15985 1
   16643    15984    15988 1
   16644    15985    15986 1
   16645    15985    15989 1
   16646    15986    15987 1
   16647    15987    15988 1
   16648    15987    15998 1
   16649    15988    15994 1
   16650    15989    15990 1
   16651    15989    15993 1
   16652    15990    15991 1
   16653    15991    15992 1
   16654    15991    15995 1
   16655    15992    15993 1
   16656    15996    15997 1
   16657    15996    16004 1
   16658    15997    15998 1
   16659    15997    16005 1
   16660    15998    15999 1
   16661    15999    16000 1
   16662    15999    16003 1
   16663    16000    16001 1
   16664    16001    16002 1
   16665    16002    16003 1
   16666    16003    16004 1
   16667    16004    16114 1
   16668    16006    16007 1
   16669    16006    16039 1
   16670    16006    16040 1
   16671    16006    16041 1
   16672    16007    16008 1
   16673    16007    16042 1
   16674    16007    16043 1
   16675    16008    16009 1
   16676    16008    16044 1
   16677    16008    16045 1
   16678    16009    16010 1
   16679    16009    16046 1
   16680    16009    16047 1
   16681    16010    16011 1
   16682    16010    16048 1
   16683    16010    16049 1
   16684    16011    16012 1
   16685    16011    16050 1
   16686    16011    16051 1
   16687    16012    16013 1
   16688    16012    16052 1
   16689    16012    16053 1
   16690    16013    16014 1
   16691    16013    16054 1
   16692    16013    16055 1
   16693    16014    16015 1
   16694    16014    16021 1
   16695    16014    16056 1
   16696    16015    16016 1
   16697    16015    16057 1
   16698    16015    16058 1
   16699    16016    16017 1
   16700    16016    16059 1
   16701    16016    16060 1
   16702    16017    16018 1
   16703    16017    16061 1
   16704    16017    16062 1
   16705    16018    16019 1
   16706    16018    16063 1
   16707    16018    16064 1
   16708    16019    16020 1
   16709    16019    16065 1
   16710    16019    16066 1
   16711    16020    16067 1
   16712    16020    16068 1
   16713    16020    16069 1
   16714    16021    16022 1
   16715    16021    16070 1
   16716    16021    16071 1
   16717    16022    16023 1
   16718    16023    16024 1
   16719    16023    16072 1
   16720    16023    16073 1
   16721    16024    16025 1
   16722    16024    16031 1
   16723    16024    16074 1
   16724    16025    16026 1
   16725    16025    16075 1
   16726    16025    16076 1
   16727    16026    16027 1
   16728    16026    16077 1
   16729    16026    16078 1
   16730    16027    16028 1
   16731    16027    16079 1
   16732    16027    16080 1
   16733    16028    16029 1
   16734    16028    16081 1
   16735    16028    16082 1
   16736    16029    16030 1
   16737    16029    16083 1
   16738    16029    16084 1
   16739    16030    16085 1
   16740    16030    16086 1
   16741    16030    16087 1
   16742    16031    16032 1
   16743    16031    16088 1
   16744    16031    16089 1
   16745    16032    16033 1
   16746    16032    16090 1
   16747    16032    16091 1
   16748    16033    16034 1
   16749    16033    16092 1
   16750    16033    16093 1
   16751    16034    16035 1
   16752    16034    16094 1
   16753    16034    16095 1
   16754    16035    16036 1
   16755    16035    16096 1
   16756    16035    16097 1
   16757    16036    16037 1
   16758    16036    16098 1
   16759    16036    16099 1
   16760    16037    16038 1
   16761    16037    16100 1
   16762    16037    16101 1
   16763    16038    16102 1
   16764    16038    16103 1
   16765    16038    16104 1
   16766    16105    16106 1
   16767    16105    16112 1
   16768    16105    16144 1
   16769    16106    16107 1
   16770    16106    16110 1
   16771    16107    16108 1
   16772    16107    16111 1
   16773    16108    16109 1
   16774    16109    16110 1
   16775    16109    16120 1
   16776    16110    16116 1
   16777    16111    16112 1
   16778    16111    16115 1
   16779    16112    16113 1
   16780    16113    16114 1
   16781    16113    16117 1
   16782    16114    16115 1
   16783    16118    16119 1
   16784    16118    16126 1
   16785    16119    16120 1
   16786    16119    16127 1
   16787    16120    16121 1
   16788    16121    16122 1
   16789    16121    16125 1
   16790    16122    16123 1
   16791    16123    16124 1
   16792    16124    16125 1
   16793    16125    16126 1
   16794    16126    16236 1
   16795    16128    16129 1
   16796    16128    16161 1
   16797    16128    16162 1
   16798    16128    16163 1
   16799    16129    16130 1
   16800    16129    16164 1
   16801    16129    16165 1
   16802    16130    16131 1
   16803    16130    16166 1
   16804    16130    16167 1
   16805    16131    16132 1
   16806    16131    16168 1
   16807    16131    16169 1
   16808    16132    16133 1
   16809    16132    16170 1
   16810    16132    16171 1
   16811    16133    16134 1
   16812    16133    16172 1
   16813    16133    16173 1
   16814    16134    16135 1
   16815    16134    16174 1
   16816    16134    16175 1
   16817    16135    16136 1
   16818    16135    16176 1
   16819    16135    16177 1
   16820    16136    16137 1
   16821    16136    16143 1
   16822    16136    16178 1
   16823    16137    16138 1
   16824    16137    16179 1
   16825    16137    16180 1
   16826    16138    16139 1
   16827    16138    16181 1
   16828    16138    16182 1
   16829    16139    16140 1
   16830    16139    16183 1
   16831    16139    16184 1
   16832    16140    16141 1
   16833    16140    16185 1
   16834    16140    16186 1
   16835    16141    16142 1
   16836    16141    16187 1
   16837    16141    16188 1
   16838    16142    16189 1
   16839    16142    16190 1
   16840    16142    16191 1
   16841    16143    16144 1
   16842    16143    16192 1
   16843    16143    16193 1
   16844    16144    16145 1
   16845    16145    16146 1
   16846    16145    16194 1
   16847    16145    16195 1
   16848    16146    16147 1
   16849    16146    16153 1
   16850    16146    16196 1
   16851    16147    16148 1
   16852    16147    16197 1
   16853    16147    16198 1
   16854    16148    16149 1
   16855    16148    16199 1
   16856    16148    16200 1
   16857    16149    16150 1
   16858    16149    16201 1
   16859    16149    16202 1
   16860    16150    16151 1
   16861    16150    16203 1
   16862    16150    16204 1
   16863    16151    16152 1
   16864    16151    16205 1
   16865    16151    16206 1
   16866    16152    16207 1
   16867    16152    16208 1
   16868    16152    16209 1
   16869    16153    16154 1
   16870    16153    16210 1
   16871    16153    16211 1
   16872    16154    16155 1
   16873    16154    16212 1
   16874    16154    16213 1
   16875    16155    16156 1
   16876    16155    16214 1
   16877    16155    16215 1
   16878    16156    16157 1
   16879    16156    16216 1
   16880    16156    16217 1
   16881    16157    16158 1
   16882    16157    16218 1
   16883    16157    16219 1
   16884    16158    16159 1
   16885    16158    16220 1
   16886    16158    16221 1
   16887    16159    16160 1
   16888    16159    16222 1
   16889    16159    16223 1
   16890    16160    16224 1
   16891    16160    16225 1
   16892    16160    16226 1
   16893    16227    16228 1
   16894    16227    16234 1
   16895    16227    16266 1
   16896    16228    16229 1
   16897    16228    16232 1
   16898    16229    16230 1
   16899    16229    16233 1
   16900    16230    16231 1
   16901    16231    16232 1
   16902    16231    16242 1
   16903    16232    16238 1
   16904    16233    16234 1
   16905    16233    16237 1
   16906    16234    16235 1
   16907    16235    16236 1
   16908    16235    16239 1
   16909    16236    16237 1
   16910    16240    16241 1
   16911    16240    16248 1
   16912    16241    16242 1
   16913    16241    16249 1
   16914    16242    16243 1
   16915    16243    16244 1
   16916    16243    16247 1
   16917    16244    16245 1
   16918    16245    16246 1
   16919    16246    16247 1
   16920    16247    16248 1
   16921    16248    16358 1
   16922    16250    16251 1
   16923    16250    16283 1
   16924    16250    16284 1
   16925    16250    16285 1
   16926    16251    16252 1
   16927    16251    16286 1
   16928    16251    16287 1
   16929    16252    16253 1
   16930    16252    16288 1
   16931    16252    16289 1
   16932    16253    16254 1
   16933    16253    16290 1
   16934    16253    16291 1
   16935    16254    16255 1
   16936    16254    16292 1
   16937    16254    16293 1
   16938    16255    16256 1
   16939    16255    16294 1
   16940    16255    16295 1
   16941    16256    16257 1
   16942    16256    16296 1
   16943    16256    16297 1
   16944    16257    16258 1
   16945    16257    16298 1
   16946    16257    16299 1
   16947    16258    16259 1
   16948    16258    16265 1
   16949    16258    16300 1
   16950    16259    16260 1
   16951    16259    16301 1
   16952    16259    16302 1
   16953    16260    16261 1
   16954    16260    16303 1
   16955    16260    16304 1
   16956    16261    16262 1
   16957    16261    16305 1
   16958    16261    16306 1
   16959    16262    16263 1
   16960    16262    16307 1
   16961    16262    16308 1
   16962    16263    16264 1
   16963    16263    16309 1
   16964    16263    16310 1
   16965    16264    16311 1
   16966    16264    16312 1
   16967    16264    16313 1
   16968    16265    16266 1
   16969    16265    16314 1
   16970    16265    16315 1
   16971    16266    16267 1
   16972    16267    16268 1
   16973    16267    16316 1
   16974    16267    16317 1
   16975    16268    16269 1
   16976    16268    16275 1
   16977    16268    16318 1
   16978    16269    16270 1
   16979    16269    16319 1
   16980    16269    16320 1
   16981    16270    16271 1
   16982    16270    16321 1
   16983    16270    16322 1
   16984    16271    16272 1
   16985    16271    16323 1
   16986    16271    16324 1
   16987    16272    16273 1
   16988    16272    16325 1
   16989    16272    16326 1
   16990    16273    16274 1
   16991    16273    16327 1
   16992    16273    16328 1
   16993    16274    16329 1
   16994    16274    16330 1
   16995    16274    16331 1
   16996    16275    16276 1
   16997    16275    16332 1
   16998    16275    16333 1
   16999    16276    16277 1
   17000    16276    16334 1
   17001    16276    16335 1
   17002    16277    16278 1
   17003    16277    16336 1
   17004    16277    16337 1
   17005    16278    16279 1
   17006    16278    16338 1
   17007    16278    16339 1
   17008    16279    16280 1
   17009    16279    16340 1
   17010    16279    16341 1
   17011    16280    16281 1
   17012    16280    16342 1
   17013    16280    16343 1
   17014    16281    16282 1
   17015    16281    16344 1
   17016    16281    16345 1
   17017    16282    16346 1
   17018    16282    16347 1
   17019    16282    16348 1
   17020    16349    16350 1
   17021    16349    16356 1
   17022    16349    16388 1
   17023    16350    16351 1
   17024    16350    16354 1
   17025    16351    16352 1
   17026    16351    16355 1
   17027    16352    16353 1
   17028    16353    16354 1
   17029    16353    16364 1
   17030    16354    16360 1
   17031    16355    16356 1
   17032    16355    16359 1
   17033    16356    16357 1
   17034    16357    16358 1
   17035    16357    16361 1
   17036    16358    16359 1
   17037    16362    16363 1
   17038    16362    16370 1
   17039    16363    16364 1
   17040    16363    16371 1
   17041    16364    16365 1
   17042    16365    16366 1
   17043    16365    16369 1
   17044    16366    16367 1
   17045    16367    16368 1
   17046    16368    16369 1
   17047    16369    16370 1
   17048    16370    16480 1
   17049    16372    16373 1
   17050    16372    16405 1
   17051    16372    16406 1
   17052    16372    16407 1
   17053    16373    16374 1
   17054    16373    16408 1
   17055    16373    16409 1
   17056    16374    16375 1
   17057    16374    16410 1
   17058    16374    16411 1
   17059    16375    16376 1
   17060    16375    16412 1
   17061    16375    16413 1
   17062    16376    16377 1
   17063    16376    16414 1
   17064    16376    16415 1
   17065    16377    16378 1
   17066    16377    16416 1
   17067    16377    16417 1
   17068    16378    16379 1
   17069    16378    16418 1
   17070    16378    16419 1
   17071    16379    16380 1
   17072    16379    16420 1
   17073    16379    16421 1
   17074    16380    16381 1
   17075    16380    16387 1
   17076    16380    16422 1
   17077    16381    16382 1
   17078    16381    16423 1
   17079    16381    16424 1
   17080    16382    16383 1
   17081    16382    16425 1
   17082    16382    16426 1
   17083    16383    16384 1
   17084    16383    16427 1
   17085    16383    16428 1
   17086    16384    16385 1
   17087    16384    16429 1
   17088    16384    16430 1
   17089    16385    16386 1
   17090    16385    16431 1
   17091    16385    16432 1
   17092    16386    16433 1
   17093    16386    16434 1
   17094    16386    16435 1
   17095    16387    16388 1
   17096    16387    16436 1
   17097    16387    16437 1
   17098    16388    16389 1
   17099    16389    16390 1
   17100    16389    16438 1
   17101    16389    16439 1
   17102    16390    16391 1
   17103    16390    16397 1
   17104    16390    16440 1
   17105    16391    16392 1
   17106    16391    16441 1
   17107    16391    16442 1
   17108    16392    16393 1
   17109    16392    16443 1
   17110    16392    16444 1
   17111    16393    16394 1
   17112    16393    16445 1
   17113    16393    16446 1
   17114    16394    16395 1
   17115    16394    16447 1
   17116    16394    16448 1
   17117    16395    16396 1
   17118    16395    16449 1
   17119    16395    16450 1
   17120    16396    16451 1
   17121    16396    16452 1
   17122    16396    16453 1
   17123    16397    16398 1
   17124    16397    16454 1
   17125    16397    16455 1
   17126    16398    16399 1
   17127    16398    16456 1
   17128    16398    16457 1
   17129    16399    16400 1
   17130    16399    16458 1
   17131    16399    16459 1
   17132    16400    16401 1
   17133    16400    16460 1
   17134    16400    16461 1
   17135    16401    16402 1
   17136    16401    16462 1
   17137    16401    16463 1
   17138    16402    16403 1
   17139    16402    16464 1
   17140    16402    16465 1
   17141    16403    16404 1
   17142    16403    16466 1
   17143    16403    16467 1
   17144    16404    16468 1
   17145    16404    16469 1
   17146    16404    16470 1
   17147    16471    16472 1
   17148    16471    16478 1
   17149    16471    16510 1
   17150    16472    16473 1
   17151    16472    16476 1
   17152    16473    16474 1
   17153    16473    16477 1
   17154    16474    16475 1
   17155    16475    16476 1
   17156    16475    16486 1
   17157    16476    16482 1
   17158    16477    16478 1
   17159    16477    16481 1
   17160    16478    16479 1
   17161    16479    16480 1
   17162    16479    16483 1
   17163    16480    16481 1
   17164    16484    16485 1
   17165    16484    16492 1
   17166    16485    16486 1
   17167    16485    16493 1
   17168    16486    16487 1
   17169    16487    16488 1
   17170    16487    16491 1
   17171    16488    16489 1
   17172    16489    16490 1
   17173    16490    16491 1
   17174    16491    16492 1
   17175    16492    16602 1
   17176    16494    16495 1
   17177    16494    16527 1
   17178    16494    16528 1
   17179    16494    16529 1
   17180    16495    16496 1
   17181    16495    16530 1
   17182    16495    16531 1
   17183    16496    16497 1
   17184    16496    16532 1
   17185    16496    16533 1
   17186    16497    16498 1
   17187    16497    16534 1
   17188    16497    16535 1
   17189    16498    16499 1
   17190    16498    16536 1
   17191    16498    16537 1
   17192    16499    16500 1
   17193    16499    16538 1
   17194    16499    16539 1
   17195    16500    16501 1
   17196    16500    16540 1
   17197    16500    16541 1
   17198    16501    16502 1
   17199    16501    16542 1
   17200    16501    16543 1
   17201    16502    16503 1
   17202    16502    16509 1
   17203    16502    16544 1
   17204    16503    16504 1
   17205    16503    16545 1
   17206    16503    16546 1
   17207    16504    16505 1
   17208    16504    16547 1
   17209    16504    16548 1
   17210    16505    16506 1
   17211    16505    16549 1
   17212    16505    16550 1
   17213    16506    16507 1
   17214    16506    16551 1
   17215    16506    16552 1
   17216    16507    16508 1
   17217    16507    16553 1
   17218    16507    16554 1
   17219    16508    16555 1
   17220    16508    16556 1
   17221    16508    16557 1
   17222    16509    16510 1
   17223    16509    16558 1
   17224    16509    16559 1
   17225    16510    16511 1
   17226    16511    16512 1
   17227    16511    16560 1
   17228    16511    16561 1
   17229    16512    16513 1
   17230    16512    16519 1
   17231    16512    16562 1
   17232    16513    16514 1
   17233    16513    16563 1
   17234    16513    16564 1
   17235    16514    16515 1
   17236    16514    16565 1
   17237    16514    16566 1
   17238    16515    16516 1
   17239    16515    16567 1
   17240    16515    16568 1
   17241    16516    16517 1
   17242    16516    16569 1
   17243    16516    16570 1
   17244    16517    16518 1
   17245    16517    16571 1
   17246    16517    16572 1
   17247    16518    16573 1
   17248    16518    16574 1
   17249    16518    16575 1
   17250    16519    16520 1
   17251    16519    16576 1
   17252    16519    16577 1
   17253    16520    16521 1
   17254    16520    16578 1
   17255    16520    16579 1
   17256    16521    16522 1
   17257    16521    16580 1
   17258    16521    16581 1
   17259    16522    16523 1
   17260    16522    16582 1
   17261    16522    16583 1
   17262    16523    16524 1
   17263    16523    16584 1
   17264    16523    16585 1
   17265    16524    16525 1
   17266    16524    16586 1
   17267    16524    16587 1
   17268    16525    16526 1
   17269    16525    16588 1
   17270    16525    16589 1
   17271    16526    16590 1
   17272    16526    16591 1
   17273    16526    16592 1
   17274    16593    16594 1
   17275    16593    16600 1
   17276    16593    16632 1
   17277    16594    16595 1
   17278    16594    16598 1
   17279    16595    16596 1
   17280    16595    16599 1
   17281    16596    16597 1
   17282    16597    16598 1
   17283    16597    16608 1
   17284    16598    16604 1
   17285    16599    16600 1
   17286    16599    16603 1
   17287    16600    16601 1
   17288    16601    16602 1
   17289    16601    16605 1
   17290    16602    16603 1
   17291    16606    16607 1
   17292    16606    16614 1
   17293    16607    16608 1
   17294    16607    16615 1
   17295    16608    16609 1
   17296    16609    16610 1
   17297    16609    16613 1
   17298    16610    16611 1
   17299    16611    16612 1
   17300    16612    16613 1
   17301    16613    16614 1
   17302    16614    16724 1
   17303    16616    16617 1
   17304    16616    16649 1
   17305    16616    16650 1
   17306    16616    16651 1
   17307    16617    16618 1
   17308    16617    16652 1
   17309    16617    16653 1
   17310    16618    16619 1
   17311    16618    16654 1
   17312    16618    16655 1
   17313    16619    16620 1
   17314    16619    16656 1
   17315    16619    16657 1
   17316    16620    16621 1
   17317    16620    16658 1
   17318    16620    16659 1
   17319    16621    16622 1
   17320    16621    16660 1
   17321    16621    16661 1
   17322    16622    16623 1
   17323    16622    16662 1
   17324    16622    16663 1
   17325    16623    16624 1
   17326    16623    16664 1
   17327    16623    16665 1
   17328    16624    16625 1
   17329    16624    16631 1
   17330    16624    16666 1
   17331    16625    16626 1
   17332    16625    16667 1
   17333    16625    16668 1
   17334    16626    16627 1
   17335    16626    16669 1
   17336    16626    16670 1
   17337    16627    16628 1
   17338    16627    16671 1
   17339    16627    16672 1
   17340    16628    16629 1
   17341    16628    16673 1
   17342    16628    16674 1
   17343    16629    16630 1
   17344    16629    16675 1
   17345    16629    16676 1
   17346    16630    16677 1
   17347    16630    16678 1
   17348    16630    16679 1
   17349    16631    16632 1
   17350    16631    16680 1
   17351    16631    16681 1
   17352    16632    16633 1
   17353    16633    16634 1
   17354    16633    16682 1
   17355    16633    16683 1
   17356    16634    16635 1
   17357    16634    16641 1
   17358    16634    16684 1
   17359    16635    16636 1
   17360    16635    16685 1
   17361    16635    16686 1
   17362    16636    16637 1
   17363    16636    16687 1
   17364    16636    16688 1
   17365    16637    16638 1
   17366    16637    16689 1
   17367    16637    16690 1
   17368    16638    16639 1
   17369    16638    16691 1
   17370    16638    16692 1
   17371    16639    16640 1
   17372    16639    16693 1
   17373    16639    16694 1
   17374    16640    16695 1
   17375    16640    16696 1
   17376    16640    16697 1
   17377    16641    16642 1
   17378    16641    16698 1
   17379    16641    16699 1
   17380    16642    16643 1
   17381    16642    16700 1
   17382    16642    16701 1
   17383    16643    16644 1
   17384    16643    16702 1
   17385    16643    16703 1
   17386    16644    16645 1
   17387    16644    16704 1
   17388    16644    16705 1
   17389    16645    16646 1
   17390    16645    16706 1
   17391    16645    16707 1
   17392    16646    16647 1
   17393    16646    16708 1
   17394    16646    16709 1
   17395    16647    16648 1
   17396    16647    16710 1
   17397    16647    16711 1
   17398    16648    16712 1
   17399    16648    16713 1
   17400    16648    16714 1
   17401    16715    16716 1
   17402    16715    16722 1
   17403    16715    16754 1
   17404    16716    16717 1
   17405    16716    16720 1
   17406    16717    16718 1
   17407    16717    16721 1
   17408    16718    16719 1
   17409    16719    16720 1
   17410    16719    16730 1
   17411    16720    16726 1
   17412    16721    16722 1
   17413    16721    16725 1
   17414    16722    16723 1
   17415    16723    16724 1
   17416    16723    16727 1
   17417    16724    16725 1
   17418    16728    16729 1
   17419    16728    16736 1
   17420    16729    16730 1
   17421    16729    16737 1
   17422    16730    16731 1
   17423    16731    16732 1
   17424    16731    16735 1
   17425    16732    16733 1
   17426    16733    16734 1
   17427    16734    16735 1
   17428    16735    16736 1
   17429    16736    16846 1
   17430    16738    16739 1
   17431    16738    16771 1
   17432    16738    16772 1
   17433    16738    16773 1
   17434    16739    16740 1
   17435    16739    16774 1
   17436    16739    16775 1
   17437    16740    16741 1
   17438    16740    16776 1
   17439    16740    16777 1
   17440    16741    16742 1
   17441    16741    16778 1
   17442    16741    16779 1
   17443    16742    16743 1
   17444    16742    16780 1
   17445    16742    16781 1
   17446    16743    16744 1
   17447    16743    16782 1
   17448    16743    16783 1
   17449    16744    16745 1
   17450    16744    16784 1
   17451    16744    16785 1
   17452    16745    16746 1
   17453    16745    16786 1
   17454    16745    16787 1
   17455    16746    16747 1
   17456    16746    16753 1
   17457    16746    16788 1
   17458    16747    16748 1
   17459    16747    16789 1
   17460    16747    16790 1
   17461    16748    16749 1
   17462    16748    16791 1
   17463    16748    16792 1
   17464    16749    16750 1
   17465    16749    16793 1
   17466    16749    16794 1
   17467    16750    16751 1
   17468    16750    16795 1
   17469    16750    16796 1
   17470    16751    16752 1
   17471    16751    16797 1
   17472    16751    16798 1
   17473    16752    16799 1
   17474    16752    16800 1
   17475    16752    16801 1
   17476    16753    16754 1
   17477    16753    16802 1
   17478    16753    16803 1
   17479    16754    16755 1
   17480    16755    16756 1
   17481    16755    16804 1
   17482    16755    16805 1
   17483    16756    16757 1
   17484    16756    16763 1
   17485    16756    16806 1
   17486    16757    16758 1
   17487    16757    16807 1
   17488    16757    16808 1
   17489    16758    16759 1
   17490    16758    16809 1
   17491    16758    16810 1
   17492    16759    16760 1
   17493    16759    16811 1
   17494    16759    16812 1
   17495    16760    16761 1
   17496    16760    16813 1
   17497    16760    16814 1
   17498    16761    16762 1
   17499    16761    16815 1
   17500    16761    16816 1
   17501    16762    16817 1
   17502    16762    16818 1
   17503    16762    16819 1
   17504    16763    16764 1
   17505    16763    16820 1
   17506    16763    16821 1
   17507    16764    16765 1
   17508    16764    16822 1
   17509    16764    16823 1
   17510    16765    16766 1
   17511    16765    16824 1
   17512    16765    16825 1
   17513    16766    16767 1
   17514    16766    16826 1
   17515    16766    16827 1
   17516    16767    16768 1
   17517    16767    16828 1
   17518    16767    16829 1
   17519    16768    16769 1
   17520    16768    16830 1
   17521    16768    16831 1
   17522    16769    16770 1
   17523    16769    16832 1
   17524    16769    16833 1
   17525    16770    16834 1
   17526    16770    16835 1
   17527    16770    16836 1
   17528    16837    16838 1
   17529    16837    16844 1
   17530    16837    16876 1
   17531    16838    16839 1
   17532    16838    16842 1
   17533    16839    16840 1
   17534    16839    16843 1
   17535    16840    16841 1
   17536    16841    16842 1
   17537    16841    16852 1
   17538    16842    16848 1
   17539    16843    16844 1
   17540    16843    16847 1
   17541    16844    16845 1
   17542    16845    16846 1
   17543    16845    16849 1
   17544    16846    16847 1
   17545    16850    16851 1
   17546    16850    16858 1
   17547    16851    16852 1
   17548    16851    16859 1
   17549    16852    16853 1
   17550    16853    16854 1
   17551    16853    16857 1
   17552    16854    16855 1
   17553    16855    16856 1
   17554    16856    16857 1
   17555    16857    16858 1
   17556    16858    16968 1
   17557    16860    16861 1
   17558    16860    16893 1
   17559    16860    16894 1
   17560    16860    16895 1
   17561    16861    16862 1
   17562    16861    16896 1
   17563    16861    16897 1
   17564    16862    16863 1
   17565    16862    16898 1
   17566    16862    16899 1
   17567    16863    16864 1
   17568    16863    16900 1
   17569    16863    16901 1
   17570    16864    16865 1
   17571    16864    16902 1
   17572    16864    16903 1
   17573    16865    16866 1
   17574    16865    16904 1
   17575    16865    16905 1
   17576    16866    16867 1
   17577    16866    16906 1
   17578    16866    16907 1
   17579    16867    16868 1
   17580    16867    16908 1
   17581    16867    16909 1
   17582    16868    16869 1
   17583    16868    16875 1
   17584    16868    16910 1
   17585    16869    16870 1
   17586    16869    16911 1
   17587    16869    16912 1
   17588    16870    16871 1
   17589    16870    16913 1
   17590    16870    16914 1
   17591    16871    16872 1
   17592    16871    16915 1
   17593    16871    16916 1
   17594    16872    16873 1
   17595    16872    16917 1
   17596    16872    16918 1
   17597    16873    16874 1
   17598    16873    16919 1
   17599    16873    16920 1
   17600    16874    16921 1
   17601    16874    16922 1
   17602    16874    16923 1
   17603    16875    16876 1
   17604    16875    16924 1
   17605    16875    16925 1
   17606    16876    16877 1
   17607    16877    16878 1
   17608    16877    16926 1
   17609    16877    16927 1
   17610    16878    16879 1
   17611    16878    16885 1
   17612    16878    16928 1
   17613    16879    16880 1
   17614    16879    16929 1
   17615    16879    16930 1
   17616    16880    16881 1
   17617    16880    16931 1
   17618    16880    16932 1
   17619    16881    16882 1
   17620    16881    16933 1
   17621    16881    16934 1
   17622    16882    16883 1
   17623    16882    16935 1
   17624    16882    16936 1
   17625    16883    16884 1
   17626    16883    16937 1
   17627    16883    16938 1
   17628    16884    16939 1
   17629    16884    16940 1
   17630    16884    16941 1
   17631    16885    16886 1
   17632    16885    16942 1
   17633    16885    16943 1
   17634    16886    16887 1
   17635    16886    16944 1
   17636    16886    16945 1
   17637    16887    16888 1
   17638    16887    16946 1
   17639    16887    16947 1
   17640    16888    16889 1
   17641    16888    16948 1
   17642    16888    16949 1
   17643    16889    16890 1
   17644    16889    16950 1
   17645    16889    16951 1
   17646    16890    16891 1
   17647    16890    16952 1
   17648    16890    16953 1
   17649    16891    16892 1
   17650    16891    16954 1
   17651    16891    16955 1
   17652    16892    16956 1
   17653    16892    16957 1
   17654    16892    16958 1
   17655    16959    16960 1
   17656    16959    16966 1
   17657    16959    16998 1
   17658    16960    16961 1
   17659    16960    16964 1
   17660    16961    16962 1
   17661    16961    16965 1
   17662    16962    16963 1
   17663    16963    16964 1
   17664    16963    16974 1
   17665    16964    16970 1
   17666    16965    16966 1
   17667    16965    16969 1
   17668    16966    16967 1
   17669    16967    16968 1
   17670    16967    16971 1
   17671    16968    16969 1
   17672    16972    16973 1
   17673    16972    16980 1
   17674    16973    16974 1
   17675    16973    16981 1
   17676    16974    16975 1
   17677    16975    16976 1
   17678    16975    16979 1
   17679    16976    16977 1
   17680    16977    16978 1
   17681    16978    16979 1
   17682    16979    16980 1
   17683    16980    17090 1
   17684    16982    16983 1
   17685    16982    17015 1
   17686    16982    17016 1
   17687    16982    17017 1
   17688    16983    16984 1
   17689    16983    17018 1
   17690    16983    17019 1
   17691    16984    16985 1
   17692    16984    17020 1
   17693    16984    17021 1
   17694    16985    16986 1
   17695    16985    17022 1
   17696    16985    17023 1
   17697    16986    16987 1
   17698    16986    17024 1
   17699    16986    17025 1
   17700    16987    16988 1
   17701    16987    17026 1
   17702    16987    17027 1
   17703    16988    16989 1
   17704    16988    17028 1
   17705    16988    17029 1
   17706    16989    16990 1
   17707    16989    17030 1
   17708    16989    17031 1
   17709    16990    16991 1
   17710    16990    16997 1
   17711    16990    17032 1
   17712    16991    16992 1
   17713    16991    17033 1
   17714    16991    17034 1
   17715    16992    16993 1
   17716    16992    17035 1
   17717    16992    17036 1
   17718    16993    16994 1
   17719    16993    17037 1
   17720    16993    17038 1
   17721    16994    16995 1
   17722    16994    17039 1
   17723    16994    17040 1
   17724    16995    16996 1
   17725    16995    17041 1
   17726    16995    17042 1
   17727    16996    17043 1
   17728    16996    17044 1
   17729    16996    17045 1
   17730    16997    16998 1
   17731    16997    17046 1
   17732    16997    17047 1
   17733    16998    16999 1
   17734    16999    17000 1
   17735    16999    17048 1
   17736    16999    17049 1
   17737    17000    17001 1
   17738    17000    17007 1
   17739    17000    17050 1
   17740    17001    17002 1
   17741    17001    17051 1
   17742    17001    17052 1
   17743    17002    17003 1
   17744    17002    17053 1
   17745    17002    17054 1
   17746    17003    17004 1
   17747    17003    17055 1
   17748    17003    17056 1
   17749    17004    17005 1
   17750    17004    17057 1
   17751    17004    17058 1
   17752    17005    17006 1
   17753    17005    17059 1
   17754    17005    17060 1
   17755    17006    17061 1
   17756    17006    17062 1
   17757    17006    17063 1
   17758    17007    17008 1
   17759    17007    17064 1
   17760    17007    17065 1
   17761    17008    17009 1
   17762    17008    17066 1
   17763    17008    17067 1
   17764    17009    17010 1
   17765    17009    17068 1
   17766    17009    17069 1
   17767    17010    17011 1
   17768    17010    17070 1
   17769    17010    17071 1
   17770    17011    17012 1
   17771    17011    17072 1
   17772    17011    17073 1
   17773    17012    17013 1
   17774    17012    17074 1
   17775    17012    17075 1
   17776    17013    17014 1
   17777    17013    17076 1
   17778    17013    17077 1
   17779    17014    17078 1
   17780    17014    17079 1
   17781    17014    17080 1
   17782    17081    17082 1
   17783    17081    17088 1
   17784    17081    17120 1
   17785    17082    17083 1
   17786    17082    17086 1
   17787    17083    17084 1
   17788    17083    17087 1
   17789    17084    17085 1
   17790    17085    17086 1
   17791    17085    17096 1
   17792    17086    17092 1
   17793    17087    17088 1
   17794    17087    17091 1
   17795    17088    17089 1
   17796    17089    17090 1
   17797    17089    17093 1
   17798    17090    17091 1
   17799    17094    17095 1
   17800    17094    17102 1
   17801    17095    17096 1
   17802    17095    17103 1
   17803    17096    17097 1
   17804    17097    17098 1
   17805    17097    17101 1
   17806    17098    17099 1
   17807    17099    17100 1
   17808    17100    17101 1
   17809    17101    17102 1
   17810    17102    17212 1
   17811    17104    17105 1
   17812    17104    17137 1
   17813    17104    17138 1
   17814    17104    17139 1
   17815    17105    17106 1
   17816    17105    17140 1
   17817    17105    17141 1
   17818    17106    17107 1
   17819    17106    17142 1
   17820    17106    17143 1
   17821    17107    17108 1
   17822    17107    17144 1
   17823    17107    17145 1
   17824    17108    17109 1
   17825    17108    17146 1
   17826    17108    17147 1
   17827    17109    17110 1
   17828    17109    17148 1
   17829    17109    17149 1
   17830    17110    17111 1
   17831    17110    17150 1
   17832    17110    17151 1
   17833    17111    17112 1
   17834    17111    17152 1
   17835    17111    17153 1
   17836    17112    17113 1
   17837    17112    17119 1
   17838    17112    17154 1
   17839    17113    17114 1
   17840    17113    17155 1
   17841    17113    17156 1
   17842    17114    17115 1
   17843    17114    17157 1
   17844    17114    17158 1
   17845    17115    17116 1
   17846    17115    17159 1
   17847    17115    17160 1
   17848    17116    17117 1
   17849    17116    17161 1
   17850    17116    17162 1
   17851    17117    17118 1
   17852    17117    17163 1
   17853    17117    17164 1
   17854    17118    17165 1
   17855    17118    17166 1
   17856    17118    17167 1
   17857    17119    17120 1
   17858    17119    17168 1
   17859    17119    17169 1
   17860    17120    17121 1
   17861    17121    17122 1
   17862    17121    17170 1
   17863    17121    17171 1
   17864    17122    17123 1
   17865    17122    17129 1
   17866    17122    17172 1
   17867    17123    17124 1
   17868    17123    17173 1
   17869    17123    17174 1
   17870    17124    17125 1
   17871    17124    17175 1
   17872    17124    17176 1
   17873    17125    17126 1
   17874    17125    17177 1
   17875    17125    17178 1
   17876    17126    17127 1
   17877    17126    17179 1
   17878    17126    17180 1
   17879    17127    17128 1
   17880    17127    17181 1
   17881    17127    17182 1
   17882    17128    17183 1
   17883    17128    17184 1
   17884    17128    17185 1
   17885    17129    17130 1
   17886    17129    17186 1
   17887    17129    17187 1
   17888    17130    17131 1
   17889    17130    17188 1
   17890    17130    17189 1
   17891    17131    17132 1
   17892    17131    17190 1
   17893    17131    17191 1
   17894    17132    17133 1
   17895    17132    17192 1
   17896    17132    17193 1
   17897    17133    17134 1
   17898    17133    17194 1
   17899    17133    17195 1
   17900    17134    17135 1
   17901    17134    17196 1
   17902    17134    17197 1
   17903    17135    17136 1
   17904    17135    17198 1
   17905    17135    17199 1
   17906    17136    17200 1
   17907    17136    17201 1
   17908    17136    17202 1
   17909    17203    17204 1
   17910    17203    17210 1
   17911    17203    17242 1
   17912    17204    17205 1
   17913    17204    17208 1
   17914    17205    17206 1
   17915    17205    17209 1
   17916    17206    17207 1
   17917    17207    17208 1
   17918    17207    17218 1
   17919    17208    17214 1
   17920    17209    17210 1
   17921    17209    17213 1
   17922    17210    17211 1
   17923    17211    17212 1
   17924    17211    17215 1
   17925    17212    17213 1
   17926    17216    17217 1
   17927    17216    17224 1
   17928    17217    17218 1
   17929    17217    17225 1
   17930    17218    17219 1
   17931    17219    17220 1
   17932    17219    17223 1
   17933    17220    17221 1
   17934    17221    17222 1
   17935    17222    17223 1
   17936    17223    17224 1
   17937    17224    17334 1
   17938    17226    17227 1
   17939    17226    17259 1
   17940    17226    17260 1
   17941    17226    17261 1
   17942    17227    17228 1
   17943    17227    17262 1
   17944    17227    17263 1
   17945    17228    17229 1
   17946    17228    17264 1
   17947    17228    17265 1
   17948    17229    17230 1
   17949    17229    17266 1
   17950    17229    17267 1
   17951    17230    17231 1
   17952    17230    17268 1
   17953    17230    17269 1
   17954    17231    17232 1
   17955    17231    17270 1
   17956    17231    17271 1
   17957    17232    17233 1
   17958    17232    17272 1
   17959    17232    17273 1
   17960    17233    17234 1
   17961    17233    17274 1
   17962    17233    17275 1
   17963    17234    17235 1
   17964    17234    17241 1
   17965    17234    17276 1
   17966    17235    17236 1
   17967    17235    17277 1
   17968    17235    17278 1
   17969    17236    17237 1
   17970    17236    17279 1
   17971    17236    17280 1
   17972    17237    17238 1
   17973    17237    17281 1
   17974    17237    17282 1
   17975    17238    17239 1
   17976    17238    17283 1
   17977    17238    17284 1
   17978    17239    17240 1
   17979    17239    17285 1
   17980    17239    17286 1
   17981    17240    17287 1
   17982    17240    17288 1
   17983    17240    17289 1
   17984    17241    17242 1
   17985    17241    17290 1
   17986    17241    17291 1
   17987    17242    17243 1
   17988    17243    17244 1
   17989    17243    17292 1
   17990    17243    17293 1
   17991    17244    17245 1
   17992    17244    17251 1
   17993    17244    17294 1
   17994    17245    17246 1
   17995    17245    17295 1
   17996    17245    17296 1
   17997    17246    17247 1
   17998    17246    17297 1
   17999    17246    17298 1
   18000    17247    17248 1
   18001    17247    17299 1
   18002    17247    17300 1
   18003    17248    17249 1
   18004    17248    17301 1
   18005    17248    17302 1
   18006    17249    17250 1
   18007    17249    17303 1
   18008    17249    17304 1
   18009    17250    17305 1
   18010    17250    17306 1
   18011    17250    17307 1
   18012    17251    17252 1
   18013    17251    17308 1
   18014    17251    17309 1
   18015    17252    17253 1
   18016    17252    17310 1
   18017    17252    17311 1
   18018    17253    17254 1
   18019    17253    17312 1
   18020    17253    17313 1
   18021    17254    17255 1
   18022    17254    17314 1
   18023    17254    17315 1
   18024    17255    17256 1
   18025    17255    17316 1
   18026    17255    17317 1
   18027    17256    17257 1
   18028    17256    17318 1
   18029    17256    17319 1
   18030    17257    17258 1
   18031    17257    17320 1
   18032    17257    17321 1
   18033    17258    17322 1
   18034    17258    17323 1
   18035    17258    17324 1
   18036    17325    17326 1
   18037    17325    17332 1
   18038    17325    17364 1
   18039    17326    17327 1
   18040    17326    17330 1
   18041    17327    17328 1
   18042    17327    17331 1
   18043    17328    17329 1
   18044    17329    17330 1
   18045    17329    17340 1
   18046    17330    17336 1
   18047    17331    17332 1
   18048    17331    17335 1
   18049    17332    17333 1
   18050    17333    17334 1
   18051    17333    17337 1
   18052    17334    17335 1
   18053    17338    17339 1
   18054    17338    17346 1
   18055    17339    17340 1
   18056    17339    17347 1
   18057    17340    17341 1
   18058    17341    17342 1
   18059    17341    17345 1
   18060    17342    17343 1
   18061    17343    17344 1
   18062    17344    17345 1
   18063    17345    17346 1
   18064    17346    17456 1
   18065    17348    17349 1
   18066    17348    17381 1
   18067    17348    17382 1
   18068    17348    17383 1
   18069    17349    17350 1
   18070    17349    17384 1
   18071    17349    17385 1
   18072    17350    17351 1
   18073    17350    17386 1
   18074    17350    17387 1
   18075    17351    17352 1
   18076    17351    17388 1
   18077    17351    17389 1
   18078    17352    17353 1
   18079    17352    17390 1
   18080    17352    17391 1
   18081    17353    17354 1
   18082    17353    17392 1
   18083    17353    17393 1
   18084    17354    17355 1
   18085    17354    17394 1
   18086    17354    17395 1
   18087    17355    17356 1
   18088    17355    17396 1
   18089    17355    17397 1
   18090    17356    17357 1
   18091    17356    17363 1
   18092    17356    17398 1
   18093    17357    17358 1
   18094    17357    17399 1
   18095    17357    17400 1
   18096    17358    17359 1
   18097    17358    17401 1
   18098    17358    17402 1
   18099    17359    17360 1
   18100    17359    17403 1
   18101    17359    17404 1
   18102    17360    17361 1
   18103    17360    17405 1
   18104    17360    17406 1
   18105    17361    17362 1
   18106    17361    17407 1
   18107    17361    17408 1
   18108    17362    17409 1
   18109    17362    17410 1
   18110    17362    17411 1
   18111    17363    17364 1
   18112    17363    17412 1
   18113    17363    17413 1
   18114    17364    17365 1
   18115    17365    17366 1
   18116    17365    17414 1
   18117    17365    17415 1
   18118    17366    17367 1
   18119    17366    17373 1
   18120    17366    17416 1
   18121    17367    17368 1
   18122    17367    17417 1
   18123    17367    17418 1
   18124    17368    17369 1
   18125    17368    17419 1
   18126    17368    17420 1
   18127    17369    17370 1
   18128    17369    17421 1
   18129    17369    17422 1
   18130    17370    17371 1
   18131    17370    17423 1
   18132    17370    17424 1
   18133    17371    17372 1
   18134    17371    17425 1
   18135    17371    17426 1
   18136    17372    17427 1
   18137    17372    17428 1
   18138    17372    17429 1
   18139    17373    17374 1
   18140    17373    17430 1
   18141    17373    17431 1
   18142    17374    17375 1
   18143    17374    17432 1
   18144    17374    17433 1
   18145    17375    17376 1
   18146    17375    17434 1
   18147    17375    17435 1
   18148    17376    17377 1
   18149    17376    17436 1
   18150    17376    17437 1
   18151    17377    17378 1
   18152    17377    17438 1
   18153    17377    17439 1
   18154    17378    17379 1
   18155    17378    17440 1
   18156    17378    17441 1
   18157    17379    17380 1
   18158    17379    17442 1
   18159    17379    17443 1
   18160    17380    17444 1
   18161    17380    17445 1
   18162    17380    17446 1
   18163    17447    17448 1
   18164    17447    17454 1
   18165    17447    17486 1
   18166    17448    17449 1
   18167    17448    17452 1
   18168    17449    17450 1
   18169    17449    17453 1
   18170    17450    17451 1
   18171    17451    17452 1
   18172    17451    17462 1
   18173    17452    17458 1
   18174    17453    17454 1
   18175    17453    17457 1
   18176    17454    17455 1
   18177    17455    17456 1
   18178    17455    17459 1
   18179    17456    17457 1
   18180    17460    17461 1
   18181    17460    17468 1
   18182    17461    17462 1
   18183    17461    17469 1
   18184    17462    17463 1
   18185    17463    17464 1
   18186    17463    17467 1
   18187    17464    17465 1
   18188    17465    17466 1
   18189    17466    17467 1
   18190    17467    17468 1
   18191    17468    17578 1
   18192    17470    17471 1
   18193    17470    17503 1
   18194    17470    17504 1
   18195    17470    17505 1
   18196    17471    17472 1
   18197    17471    17506 1
   18198    17471    17507 1
   18199    17472    17473 1
   18200    17472    17508 1
   18201    17472    17509 1
   18202    17473    17474 1
   18203    17473    17510 1
   18204    17473    17511 1
   18205    17474    17475 1
   18206    17474    17512 1
   18207    17474    17513 1
   18208    17475    17476 1
   18209    17475    17514 1
   18210    17475    17515 1
   18211    17476    17477 1
   18212    17476    17516 1
   18213    17476    17517 1
   18214    17477    17478 1
   18215    17477    17518 1
   18216    17477    17519 1
   18217    17478    17479 1
   18218    17478    17485 1
   18219    17478    17520 1
   18220    17479    17480 1
   18221    17479    17521 1
   18222    17479    17522 1
   18223    17480    17481 1
   18224    17480    17523 1
   18225    17480    17524 1
   18226    17481    17482 1
   18227    17481    17525 1
   18228    17481    17526 1
   18229    17482    17483 1
   18230    17482    17527 1
   18231    17482    17528 1
   18232    17483    17484 1
   18233    17483    17529 1
   18234    17483    17530 1
   18235    17484    17531 1
   18236    17484    17532 1
   18237    17484    17533 1
   18238    17485    17486 1
   18239    17485    17534 1
   18240    17485    17535 1
   18241    17486    17487 1
   18242    17487    17488 1
   18243    17487    17536 1
   18244    17487    17537 1
   18245    17488    17489 1
   18246    17488    17495 1
   18247    17488    17538 1
   18248    17489    17490 1
   18249    17489    17539 1
   18250    17489    17540 1
   18251    17490    17491 1
   18252    17490    17541 1
   18253    17490    17542 1
   18254    17491    17492 1
   18255    17491    17543 1
   18256    17491    17544 1
   18257    17492    17493 1
   18258    17492    17545 1
   18259    17492    17546 1
   18260    17493    17494 1
   18261    17493    17547 1
   18262    17493    17548 1
   18263    17494    17549 1
   18264    17494    17550 1
   18265    17494    17551 1
   18266    17495    17496 1
   18267    17495    17552 1
   18268    17495    17553 1
   18269    17496    17497 1
   18270    17496    17554 1
   18271    17496    17555 1
   18272    17497    17498 1
   18273    17497    17556 1
   18274    17497    17557 1
   18275    17498    17499 1
   18276    17498    17558 1
   18277    17498    17559 1
   18278    17499    17500 1
   18279    17499    17560 1
   18280    17499    17561 1
   18281    17500    17501 1
   18282    17500    17562 1
   18283    17500    17563 1
   18284    17501    17502 1
   18285    17501    17564 1
   18286    17501    17565 1
   18287    17502    17566 1
   18288    17502    17567 1
   18289    17502    17568 1
   18290    17569    17570 1
   18291    17569    17576 1
   18292    17569    17608 1
   18293    17570    17571 1
   18294    17570    17574 1
   18295    17571    17572 1
   18296    17571    17575 1
   18297    17572    17573 1
   18298    17573    17574 1
   18299    17573    17584 1
   18300    17574    17580 1
   18301    17575    17576 1
   18302    17575    17579 1
   18303    17576    17577 1
   18304    17577    17578 1
   18305    17577    17581 1
   18306    17578    17579 1
   18307    17582    17583 1
   18308    17582    17590 1
   18309    17583    17584 1
   18310    17583    17591 1
   18311    17584    17585 1
   18312    17585    17586 1
   18313    17585    17589 1
   18314    17586    17587 1
   18315    17587    17588 1
   18316    17588    17589 1
   18317    17589    17590 1
   18318    17590    17700 1
   18319    17592    17593 1
   18320    17592    17625 1
   18321    17592    17626 1
   18322    17592    17627 1
   18323    17593    17594 1
   18324    17593    17628 1
   18325    17593    17629 1
   18326    17594    17595 1
   18327    17594    17630 1
   18328    17594    17631 1
   18329    17595    17596 1
   18330    17595    17632 1
   18331    17595    17633 1
   18332    17596    17597 1
   18333    17596    17634 1
   18334    17596    17635 1
   18335    17597    17598 1
   18336    17597    17636 1
   18337    17597    17637 1
   18338    17598    17599 1
   18339    17598    17638 1
   18340    17598    17639 1
   18341    17599    17600 1
   18342    17599    17640 1
   18343    17599    17641 1
   18344    17600    17601 1
   18345    17600    17607 1
   18346    17600    17642 1
   18347    17601    17602 1
   18348    17601    17643 1
   18349    17601    17644 1
   18350    17602    17603 1
   18351    17602    17645 1
   18352    17602    17646 1
   18353    17603    17604 1
   18354    17603    17647 1
   18355    17603    17648 1
   18356    17604    17605 1
   18357    17604    17649 1
   18358    17604    17650 1
   18359    17605    17606 1
   18360    17605    17651 1
   18361    17605    17652 1
   18362    17606    17653 1
   18363    17606    17654 1
   18364    17606    17655 1
   18365    17607    17608 1
   18366    17607    17656 1
   18367    17607    17657 1
   18368    17608    17609 1
   18369    17609    17610 1
   18370    17609    17658 1
   18371    17609    17659 1
   18372    17610    17611 1
   18373    17610    17617 1
   18374    17610    17660 1
   18375    17611    17612 1
   18376    17611    17661 1
   18377    17611    17662 1
   18378    17612    17613 1
   18379    17612    17663 1
   18380    17612    17664 1
   18381    17613    17614 1
   18382    17613    17665 1
   18383    17613    17666 1
   18384    17614    17615 1
   18385    17614    17667 1
   18386    17614    17668 1
   18387    17615    17616 1
   18388    17615    17669 1
   18389    17615    17670 1
   18390    17616    17671 1
   18391    17616    17672 1
   18392    17616    17673 1
   18393    17617    17618 1
   18394    17617    17674 1
   18395    17617    17675 1
   18396    17618    17619 1
   18397    17618    17676 1
   18398    17618    17677 1
   18399    17619    17620 1
   18400    17619    17678 1
   18401    17619    17679 1
   18402    17620    17621 1
   18403    17620    17680 1
   18404    17620    17681 1
   18405    17621    17622 1
   18406    17621    17682 1
   18407    17621    17683 1
   18408    17622    17623 1
   18409    17622    17684 1
   18410    17622    17685 1
   18411    17623    17624 1
   18412    17623    17686 1
   18413    17623    17687 1
   18414    17624    17688 1
   18415    17624    17689 1
   18416    17624    17690 1
   18417    17691    17692 1
   18418    17691    17698 1
   18419    17691    17730 1
   18420    17692    17693 1
   18421    17692    17696 1
   18422    17693    17694 1
   18423    17693    17697 1
   18424    17694    17695 1
   18425    17695    17696 1
   18426    17695    17706 1
   18427    17696    17702 1
   18428    17697    17698 1
   18429    17697    17701 1
   18430    17698    17699 1
   18431    17699    17700 1
   18432    17699    17703 1
   18433    17700    17701 1
   18434    17704    17705 1
   18435    17704    17712 1
   18436    17705    17706 1
   18437    17705    17713 1
   18438    17706    17707 1
   18439    17707    17708 1
   18440    17707    17711 1
   18441    17708    17709 1
   18442    17709    17710 1
   18443    17710    17711 1
   18444    17711    17712 1
   18445    17712    17822 1
   18446    17714    17715 1
   18447    17714    17747 1
   18448    17714    17748 1
   18449    17714    17749 1
   18450    17715    17716 1
   18451    17715    17750 1
   18452    17715    17751 1
   18453    17716    17717 1
   18454    17716    17752 1
   18455    17716    17753 1
   18456    17717    17718 1
   18457    17717    17754 1
   18458    17717    17755 1
   18459    17718    17719 1
   18460    17718    17756 1
   18461    17718    17757 1
   18462    17719    17720 1
   18463    17719    17758 1
   18464    17719    17759 1
   18465    17720    17721 1
   18466    17720    17760 1
   18467    17720    17761 1
   18468    17721    17722 1
   18469    17721    17762 1
   18470    17721    17763 1
   18471    17722    17723 1
   18472    17722    17729 1
   18473    17722    17764 1
   18474    17723    17724 1
   18475    17723    17765 1
   18476    17723    17766 1
   18477    17724    17725 1
   18478    17724    17767 1
   18479    17724    17768 1
   18480    17725    17726 1
   18481    17725    17769 1
   18482    17725    17770 1
   18483    17726    17727 1
   18484    17726    17771 1
   18485    17726    17772 1
   18486    17727    17728 1
   18487    17727    17773 1
   18488    17727    17774 1
   18489    17728    17775 1
   18490    17728    17776 1
   18491    17728    17777 1
   18492    17729    17730 1
   18493    17729    17778 1
   18494    17729    17779 1
   18495    17730    17731 1
   18496    17731    17732 1
   18497    17731    17780 1
   18498    17731    17781 1
   18499    17732    17733 1
   18500    17732    17739 1
   18501    17732    17782 1
   18502    17733    17734 1
   18503    17733    17783 1
   18504    17733    17784 1
   18505    17734    17735 1
   18506    17734    17785 1
   18507    17734    17786 1
   18508    17735    17736 1
   18509    17735    17787 1
   18510    17735    17788 1
   18511    17736    17737 1
   18512    17736    17789 1
   18513    17736    17790 1
   18514    17737    17738 1
   18515    17737    17791 1
   18516    17737    17792 1
   18517    17738    17793 1
   18518    17738    17794 1
   18519    17738    17795 1
   18520    17739    17740 1
   18521    17739    17796 1
   18522    17739    17797 1
   18523    17740    17741 1
   18524    17740    17798 1
   18525    17740    17799 1
   18526    17741    17742 1
   18527    17741    17800 1
   18528    17741    17801 1
   18529    17742    17743 1
   18530    17742    17802 1
   18531    17742    17803 1
   18532    17743    17744 1
   18533    17743    17804 1
   18534    17743    17805 1
   18535    17744    17745 1
   18536    17744    17806 1
   18537    17744    17807 1
   18538    17745    17746 1
   18539    17745    17808 1
   18540    17745    17809 1
   18541    17746    17810 1
   18542    17746    17811 1
   18543    17746    17812 1
   18544    17813    17814 1
   18545    17813    17820 1
   18546    17813    17852 1
   18547    17814    17815 1
   18548    17814    17818 1
   18549    17815    17816 1
   18550    17815    17819 1
   18551    17816    17817 1
   18552    17817    17818 1
   18553    17817    17828 1
   18554    17818    17824 1
   18555    17819    17820 1
   18556    17819    17823 1
   18557    17820    17821 1
   18558    17821    17822 1
   18559    17821    17825 1
   18560    17822    17823 1
   18561    17826    17827 1
   18562    17826    17834 1
   18563    17827    17828 1
   18564    17827    17835 1
   18565    17828    17829 1
   18566    17829    17830 1
   18567    17829    17833 1
   18568    17830    17831 1
   18569    17831    17832 1
   18570    17832    17833 1
   18571    17833    17834 1
   18572    17834    17944 1
   18573    17836    17837 1
   18574    17836    17869 1
   18575    17836    17870 1
   18576    17836    17871 1
   18577    17837    17838 1
   18578    17837    17872 1
   18579    17837    17873 1
   18580    17838    17839 1
   18581    17838    17874 1
   18582    17838    17875 1
   18583    17839    17840 1
   18584    17839    17876 1
   18585    17839    17877 1
   18586    17840    17841 1
   18587    17840    17878 1
   18588    17840    17879 1
   18589    17841    17842 1
   18590    17841    17880 1
   18591    17841    17881 1
   18592    17842    17843 1
   18593    17842    17882 1
   18594    17842    17883 1
   18595    17843    17844 1
   18596    17843    17884 1
   18597    17843    17885 1
   18598    17844    17845 1
   18599    17844    17851 1
   18600    17844    17886 1
   18601    17845    17846 1
   18602    17845    17887 1
   18603    17845    17888 1
   18604    17846    17847 1
   18605    17846    17889 1
   18606    17846    17890 1
   18607    17847    17848 1
   18608    17847    17891 1
   18609    17847    17892 1
   18610    17848    17849 1
   18611    17848    17893 1
   18612    17848    17894 1
   18613    17849    17850 1
   18614    17849    17895 1
   18615    17849    17896 1
   18616    17850    17897 1
   18617    17850    17898 1
   18618    17850    17899 1
   18619    17851    17852 1
   18620    17851    17900 1
   18621    17851    17901 1
   18622    17852    17853 1
   18623    17853    17854 1
   18624    17853    17902 1
   18625    17853    17903 1
   18626    17854    17855 1
   18627    17854    17861 1
   18628    17854    17904 1
   18629    17855    17856 1
   18630    17855    17905 1
   18631    17855    17906 1
   18632    17856    17857 1
   18633    17856    17907 1
   18634    17856    17908 1
   18635    17857    17858 1
   18636    17857    17909 1
   18637    17857    17910 1
   18638    17858    17859 1
   18639    17858    17911 1
   18640    17858    17912 1
   18641    17859    17860 1
   18642    17859    17913 1
   18643    17859    17914 1
   18644    17860    17915 1
   18645    17860    17916 1
   18646    17860    17917 1
   18647    17861    17862 1
   18648    17861    17918 1
   18649    17861    17919 1
   18650    17862    17863 1
   18651    17862    17920 1
   18652    17862    17921 1
   18653    17863    17864 1
   18654    17863    17922 1
   18655    17863    17923 1
   18656    17864    17865 1
   18657    17864    17924 1
   18658    17864    17925 1
   18659    17865    17866 1
   18660    17865    17926 1
   18661    17865    17927 1
   18662    17866    17867 1
   18663    17866    17928 1
   18664    17866    17929 1
   18665    17867    17868 1
   18666    17867    17930 1
   18667    17867    17931 1
   18668    17868    17932 1
   18669    17868    17933 1
   18670    17868    17934 1
   18671    17935    17936 1
   18672    17935    17942 1
   18673    17935    17974 1
   18674    17936    17937 1
   18675    17936    17940 1
   18676    17937    17938 1
   18677    17937    17941 1
   18678    17938    17939 1
   18679    17939    17940 1
   18680    17939    17950 1
   18681    17940    17946 1
   18682    17941    17942 1
   18683    17941    17945 1
   18684    17942    17943 1
   18685    17943    17944 1
   18686    17943    17947 1
   18687    17944    17945 1
   18688    17948    17949 1
   18689    17948    17956 1
   18690    17949    17950 1
   18691    17949    17957 1
   18692    17950    17951 1
   18693    17951    17952 1
   18694    17951    17955 1
   18695    17952    17953 1
   18696    17953    17954 1
   18697    17954    17955 1
   18698    17955    17956 1
   18699    17956    18066 1
   18700    17958    17959 1
   18701    17958    17991 1
   18702    17958    17992 1
   18703    17958    17993 1
   18704    17959    17960 1
   18705    17959    17994 1
   18706    17959    17995 1
   18707    17960    17961 1
   18708    17960    17996 1
   18709    17960    17997 1
   18710    17961    17962 1
   18711    17961    17998 1
   18712    17961    17999 1
   18713    17962    17963 1
   18714    17962    18000 1
   18715    17962    18001 1
   18716    17963    17964 1
   18717    17963    18002 1
   18718    17963    18003 1
   18719    17964    17965 1
   18720    17964    18004 1
   18721    17964    18005 1
   18722    17965    17966 1
   18723    17965    18006 1
   18724    17965    18007 1
   18725    17966    17967 1
   18726    17966    17973 1
   18727    17966    18008 1
   18728    17967    17968 1
   18729    17967    18009 1
   18730    17967    18010 1
   18731    17968    17969 1
   18732    17968    18011 1
   18733    17968    18012 1
   18734    17969    17970 1
   18735    17969    18013 1
   18736    17969    18014 1
   18737    17970    17971 1
   18738    17970    18015 1
   18739    17970    18016 1
   18740    17971    17972 1
   18741    17971    18017 1
   18742    17971    18018 1
   18743    17972    18019 1
   18744    17972    18020 1
   18745    17972    18021 1
   18746    17973    17974 1
   18747    17973    18022 1
   18748    17973    18023 1
   18749    17974    17975 1
   18750    17975    17976 1
   18751    17975    18024 1
   18752    17975    18025 1
   18753    17976    17977 1
   18754    17976    17983 1
   18755    17976    18026 1
   18756    17977    17978 1
   18757    17977    18027 1
   18758    17977    18028 1
   18759    17978    17979 1
   18760    17978    18029 1
   18761    17978    18030 1
   18762    17979    17980 1
   18763    17979    18031 1
   18764    17979    18032 1
   18765    17980    17981 1
   18766    17980    18033 1
   18767    17980    18034 1
   18768    17981    17982 1
   18769    17981    18035 1
   18770    17981    18036 1
   18771    17982    18037 1
   18772    17982    18038 1
   18773    17982    18039 1
   18774    17983    17984 1
   18775    17983    18040 1
   18776    17983    18041 1
   18777    17984    17985 1
   18778    17984    18042 1
   18779    17984    18043 1
   18780    17985    17986 1
   18781    17985    18044 1
   18782    17985    18045 1
   18783    17986    17987 1
   18784    17986    18046 1
   18785    17986    18047 1
   18786    17987    17988 1
   18787    17987    18048 1
   18788    17987    18049 1
   18789    17988    17989 1
   18790    17988    18050 1
   18791    17988    18051 1
   18792    17989    17990 1
   18793    17989    18052 1
   18794    17989    18053 1
   18795    17990    18054 1
   18796    17990    18055 1
   18797    17990    18056 1
   18798    18057    18058 1
   18799    18057    18064 1
   18800    18057    18096 1
   18801    18058    18059 1
   18802    18058    18062 1
   18803    18059    18060 1
   18804    18059    18063 1
   18805    18060    18061 1
   18806    18061    18062 1
   18807    18061    18072 1
   18808    18062    18068 1
   18809    18063    18064 1
   18810    18063    18067 1
   18811    18064    18065 1
   18812    18065    18066 1
   18813    18065    18069 1
   18814    18066    18067 1
   18815    18070    18071 1
   18816    18070    18078 1
   18817    18071    18072 1
   18818    18071    18079 1
   18819    18072    18073 1
   18820    18073    18074 1
   18821    18073    18077 1
   18822    18074    18075 1
   18823    18075    18076 1
   18824    18076    18077 1
   18825    18077    18078 1
   18826    18078    18188 1
   18827    18080    18081 1
   18828    18080    18113 1
   18829    18080    18114 1
   18830    18080    18115 1
   18831    18081    18082 1
   18832    18081    18116 1
   18833    18081    18117 1
   18834    18082    18083 1
   18835    18082    18118 1
   18836    18082    18119 1
   18837    18083    18084 1
   18838    18083    18120 1
   18839    18083    18121 1
   18840    18084    18085 1
   18841    18084    18122 1
   18842    18084    18123 1
   18843    18085    18086 1
   18844    18085    18124 1
   18845    18085    18125 1
   18846    18086    18087 1
   18847    18086    18126 1
   18848    18086    18127 1
   18849    18087    18088 1
   18850    18087    18128 1
   18851    18087    18129 1
   18852    18088    18089 1
   18853    18088    18095 1
   18854    18088    18130 1
   18855    18089    18090 1
   18856    18089    18131 1
   18857    18089    18132 1
   18858    18090    18091 1
   18859    18090    18133 1
   18860    18090    18134 1
   18861    18091    18092 1
   18862    18091    18135 1
   18863    18091    18136 1
   18864    18092    18093 1
   18865    18092    18137 1
   18866    18092    18138 1
   18867    18093    18094 1
   18868    18093    18139 1
   18869    18093    18140 1
   18870    18094    18141 1
   18871    18094    18142 1
   18872    18094    18143 1
   18873    18095    18096 1
   18874    18095    18144 1
   18875    18095    18145 1
   18876    18096    18097 1
   18877    18097    18098 1
   18878    18097    18146 1
   18879    18097    18147 1
   18880    18098    18099 1
   18881    18098    18105 1
   18882    18098    18148 1
   18883    18099    18100 1
   18884    18099    18149 1
   18885    18099    18150 1
   18886    18100    18101 1
   18887    18100    18151 1
   18888    18100    18152 1
   18889    18101    18102 1
   18890    18101    18153 1
   18891    18101    18154 1
   18892    18102    18103 1
   18893    18102    18155 1
   18894    18102    18156 1
   18895    18103    18104 1
   18896    18103    18157 1
   18897    18103    18158 1
   18898    18104    18159 1
   18899    18104    18160 1
   18900    18104    18161 1
   18901    18105    18106 1
   18902    18105    18162 1
   18903    18105    18163 1
   18904    18106    18107 1
   18905    18106    18164 1
   18906    18106    18165 1
   18907    18107    18108 1
   18908    18107    18166 1
   18909    18107    18167 1
   18910    18108    18109 1
   18911    18108    18168 1
   18912    18108    18169 1
   18913    18109    18110 1
   18914    18109    18170 1
   18915    18109    18171 1
   18916    18110    18111 1
   18917    18110    18172 1
   18918    18110    18173 1
   18919    18111    18112 1
   18920    18111    18174 1
   18921    18111    18175 1
   18922    18112    18176 1
   18923    18112    18177 1
   18924    18112    18178 1
   18925    18179    18180 1
   18926    18179    18186 1
   18927    18179    18218 1
   18928    18180    18181 1
   18929    18180    18184 1
   18930    18181    18182 1
   18931    18181    18185 1
   18932    18182    18183 1
   18933    18183    18184 1
   18934    18183    18194 1
   18935    18184    18190 1
   18936    18185    18186 1
   18937    18185    18189 1
   18938    18186    18187 1
   18939    18187    18188 1
   18940    18187    18191 1
   18941    18188    18189 1
   18942    18192    18193 1
   18943    18192    18200 1
   18944    18193    18194 1
   18945    18193    18201 1
   18946    18194    18195 1
   18947    18195    18196 1
   18948    18195    18199 1
   18949    18196    18197 1
   18950    18197    18198 1
   18951    18198    18199 1
   18952    18199    18200 1
   18953    18200    18310 1
   18954    18202    18203 1
   18955    18202    18235 1
   18956    18202    18236 1
   18957    18202    18237 1
   18958    18203    18204 1
   18959    18203    18238 1
   18960    18203    18239 1
   18961    18204    18205 1
   18962    18204    18240 1
   18963    18204    18241 1
   18964    18205    18206 1
   18965    18205    18242 1
   18966    18205    18243 1
   18967    18206    18207 1
   18968    18206    18244 1
   18969    18206    18245 1
   18970    18207    18208 1
   18971    18207    18246 1
   18972    18207    18247 1
   18973    18208    18209 1
   18974    18208    18248 1
   18975    18208    18249 1
   18976    18209    18210 1
   18977    18209    18250 1
   18978    18209    18251 1
   18979    18210    18211 1
   18980    18210    18217 1
   18981    18210    18252 1
   18982    18211    18212 1
   18983    18211    18253 1
   18984    18211    18254 1
   18985    18212    18213 1
   18986    18212    18255 1
   18987    18212    18256 1
   18988    18213    18214 1
   18989    18213    18257 1
   18990    18213    18258 1
   18991    18214    18215 1
   18992    18214    18259 1
   18993    18214    18260 1
   18994    18215    18216 1
   18995    18215    18261 1
   18996    18215    18262 1
   18997    18216    18263 1
   18998    18216    18264 1
   18999    18216    18265 1
   19000    18217    18218 1
   19001    18217    18266 1
   19002    18217    18267 1
   19003    18218    18219 1
   19004    18219    18220 1
   19005    18219    18268 1
   19006    18219    18269 1
   19007    18220    18221 1
   19008    18220    18227 1
   19009    18220    18270 1
   19010    18221    18222 1
   19011    18221    18271 1
   19012    18221    18272 1
   19013    18222    18223 1
   19014    18222    18273 1
   19015    18222    18274 1
   19016    18223    18224 1
   19017    18223    18275 1
   19018    18223    18276 1
   19019    18224    18225 1
   19020    18224    18277 1
   19021    18224    18278 1
   19022    18225    18226 1
   19023    18225    18279 1
   19024    18225    18280 1
   19025    18226    18281 1
   19026    18226    18282 1
   19027    18226    18283 1
   19028    18227    18228 1
   19029    18227    18284 1
   19030    18227    18285 1
   19031    18228    18229 1
   19032    18228    18286 1
   19033    18228    18287 1
   19034    18229    18230 1
   19035    18229    18288 1
   19036    18229    18289 1
   19037    18230    18231 1
   19038    18230    18290 1
   19039    18230    18291 1
   19040    18231    18232 1
   19041    18231    18292 1
   19042    18231    18293 1
   19043    18232    18233 1
   19044    18232    18294 1
   19045    18232    18295 1
   19046    18233    18234 1
   19047    18233    18296 1
   19048    18233    18297 1
   19049    18234    18298 1
   19050    18234    18299 1
   19051    18234    18300 1
   19052    18301    18302 1
   19053    18301    18308 1
   19054    18301    18340 1
   19055    18302    18303 1
   19056    18302    18306 1
   19057    18303    18304 1
   19058    18303    18307 1
   19059    18304    18305 1
   19060    18305    18306 1
   19061    18305    18316 1
   19062    18306    18312 1
   19063    18307    18308 1
   19064    18307    18311 1
   19065    18308    18309 1
   19066    18309    18310 1
   19067    18309    18313 1
   19068    18310    18311 1
   19069    18314    18315 1
   19070    18314    18322 1
   19071    18315    18316 1
   19072    18315    18323 1
   19073    18316    18317 1
   19074    18317    18318 1
   19075    18317    18321 1
   19076    18318    18319 1
   19077    18319    18320 1
   19078    18320    18321 1
   19079    18321    18322 1
   19080    18322    18432 1
   19081    18324    18325 1
   19082    18324    18357 1
   19083    18324    18358 1
   19084    18324    18359 1
   19085    18325    18326 1
   19086    18325    18360 1
   19087    18325    18361 1
   19088    18326    18327 1
   19089    18326    18362 1
   19090    18326    18363 1
   19091    18327    18328 1
   19092    18327    18364 1
   19093    18327    18365 1
   19094    18328    18329 1
   19095    18328    18366 1
   19096    18328    18367 1
   19097    18329    18330 1
   19098    18329    18368 1
   19099    18329    18369 1
   19100    18330    18331 1
   19101    18330    18370 1
   19102    18330    18371 1
   19103    18331    18332 1
   19104    18331    18372 1
   19105    18331    18373 1
   19106    18332    18333 1
   19107    18332    18339 1
   19108    18332    18374 1
   19109    18333    18334 1
   19110    18333    18375 1
   19111    18333    18376 1
   19112    18334    18335 1
   19113    18334    18377 1
   19114    18334    18378 1
   19115    18335    18336 1
   19116    18335    18379 1
   19117    18335    18380 1
   19118    18336    18337 1
   19119    18336    18381 1
   19120    18336    18382 1
   19121    18337    18338 1
   19122    18337    18383 1
   19123    18337    18384 1
   19124    18338    18385 1
   19125    18338    18386 1
   19126    18338    18387 1
   19127    18339    18340 1
   19128    18339    18388 1
   19129    18339    18389 1
   19130    18340    18341 1
   19131    18341    18342 1
   19132    18341    18390 1
   19133    18341    18391 1
   19134    18342    18343 1
   19135    18342    18349 1
   19136    18342    18392 1
   19137    18343    18344 1
   19138    18343    18393 1
   19139    18343    18394 1
   19140    18344    18345 1
   19141    18344    18395 1
   19142    18344    18396 1
   19143    18345    18346 1
   19144    18345    18397 1
   19145    18345    18398 1
   19146    18346    18347 1
   19147    18346    18399 1
   19148    18346    18400 1
   19149    18347    18348 1
   19150    18347    18401 1
   19151    18347    18402 1
   19152    18348    18403 1
   19153    18348    18404 1
   19154    18348    18405 1
   19155    18349    18350 1
   19156    18349    18406 1
   19157    18349    18407 1
   19158    18350    18351 1
   19159    18350    18408 1
   19160    18350    18409 1
   19161    18351    18352 1
   19162    18351    18410 1
   19163    18351    18411 1
   19164    18352    18353 1
   19165    18352    18412 1
   19166    18352    18413 1
   19167    18353    18354 1
   19168    18353    18414 1
   19169    18353    18415 1
   19170    18354    18355 1
   19171    18354    18416 1
   19172    18354    18417 1
   19173    18355    18356 1
   19174    18355    18418 1
   19175    18355    18419 1
   19176    18356    18420 1
   19177    18356    18421 1
   19178    18356    18422 1
   19179    18423    18424 1
   19180    18423    18430 1
   19181    18423    18462 1
   19182    18424    18425 1
   19183    18424    18428 1
   19184    18425    18426 1
   19185    18425    18429 1
   19186    18426    18427 1
   19187    18427    18428 1
   19188    18427    18438 1
   19189    18428    18434 1
   19190    18429    18430 1
   19191    18429    18433 1
   19192    18430    18431 1
   19193    18431    18432 1
   19194    18431    18435 1
   19195    18432    18433 1
   19196    18436    18437 1
   19197    18436    18444 1
   19198    18437    18438 1
   19199    18437    18445 1
   19200    18438    18439 1
   19201    18439    18440 1
   19202    18439    18443 1
   19203    18440    18441 1
   19204    18441    18442 1
   19205    18442    18443 1
   19206    18443    18444 1
   19207    18444    18554 1
   19208    18446    18447 1
   19209    18446    18479 1
   19210    18446    18480 1
   19211    18446    18481 1
   19212    18447    18448 1
   19213    18447    18482 1
   19214    18447    18483 1
   19215    18448    18449 1
   19216    18448    18484 1
   19217    18448    18485 1
   19218    18449    18450 1
   19219    18449    18486 1
   19220    18449    18487 1
   19221    18450    18451 1
   19222    18450    18488 1
   19223    18450    18489 1
   19224    18451    18452 1
   19225    18451    18490 1
   19226    18451    18491 1
   19227    18452    18453 1
   19228    18452    18492 1
   19229    18452    18493 1
   19230    18453    18454 1
   19231    18453    18494 1
   19232    18453    18495 1
   19233    18454    18455 1
   19234    18454    18461 1
   19235    18454    18496 1
   19236    18455    18456 1
   19237    18455    18497 1
   19238    18455    18498 1
   19239    18456    18457 1
   19240    18456    18499 1
   19241    18456    18500 1
   19242    18457    18458 1
   19243    18457    18501 1
   19244    18457    18502 1
   19245    18458    18459 1
   19246    18458    18503 1
   19247    18458    18504 1
   19248    18459    18460 1
   19249    18459    18505 1
   19250    18459    18506 1
   19251    18460    18507 1
   19252    18460    18508 1
   19253    18460    18509 1
   19254    18461    18462 1
   19255    18461    18510 1
   19256    18461    18511 1
   19257    18462    18463 1
   19258    18463    18464 1
   19259    18463    18512 1
   19260    18463    18513 1
   19261    18464    18465 1
   19262    18464    18471 1
   19263    18464    18514 1
   19264    18465    18466 1
   19265    18465    18515 1
   19266    18465    18516 1
   19267    18466    18467 1
   19268    18466    18517 1
   19269    18466    18518 1
   19270    18467    18468 1
   19271    18467    18519 1
   19272    18467    18520 1
   19273    18468    18469 1
   19274    18468    18521 1
   19275    18468    18522 1
   19276    18469    18470 1
   19277    18469    18523 1
   19278    18469    18524 1
   19279    18470    18525 1
   19280    18470    18526 1
   19281    18470    18527 1
   19282    18471    18472 1
   19283    18471    18528 1
   19284    18471    18529 1
   19285    18472    18473 1
   19286    18472    18530 1
   19287    18472    18531 1
   19288    18473    18474 1
   19289    18473    18532 1
   19290    18473    18533 1
   19291    18474    18475 1
   19292    18474    18534 1
   19293    18474    18535 1
   19294    18475    18476 1
   19295    18475    18536 1
   19296    18475    18537 1
   19297    18476    18477 1
   19298    18476    18538 1
   19299    18476    18539 1
   19300    18477    18478 1
   19301    18477    18540 1
   19302    18477    18541 1
   19303    18478    18542 1
   19304    18478    18543 1
   19305    18478    18544 1
   19306    18545    18546 1
   19307    18545    18552 1
   19308    18545    18584 1
   19309    18546    18547 1
   19310    18546    18550 1
   19311    18547    18548 1
   19312    18547    18551 1
   19313    18548    18549 1
   19314    18549    18550 1
   19315    18549    18560 1
   19316    18550    18556 1
   19317    18551    18552 1
   19318    18551    18555 1
   19319    18552    18553 1
   19320    18553    18554 1
   19321    18553    18557 1
   19322    18554    18555 1
   19323    18558    18559 1
   19324    18558    18566 1
   19325    18559    18560 1
   19326    18559    18567 1
   19327    18560    18561 1
   19328    18561    18562 1
   19329    18561    18565 1
   19330    18562    18563 1
   19331    18563    18564 1
   19332    18564    18565 1
   19333    18565    18566 1
   19334    18566    18676 1
   19335    18568    18569 1
   19336    18568    18601 1
   19337    18568    18602 1
   19338    18568    18603 1
   19339    18569    18570 1
   19340    18569    18604 1
   19341    18569    18605 1
   19342    18570    18571 1
   19343    18570    18606 1
   19344    18570    18607 1
   19345    18571    18572 1
   19346    18571    18608 1
   19347    18571    18609 1
   19348    18572    18573 1
   19349    18572    18610 1
   19350    18572    18611 1
   19351    18573    18574 1
   19352    18573    18612 1
   19353    18573    18613 1
   19354    18574    18575 1
   19355    18574    18614 1
   19356    18574    18615 1
   19357    18575    18576 1
   19358    18575    18616 1
   19359    18575    18617 1
   19360    18576    18577 1
   19361    18576    18583 1
   19362    18576    18618 1
   19363    18577    18578 1
   19364    18577    18619 1
   19365    18577    18620 1
   19366    18578    18579 1
   19367    18578    18621 1
   19368    18578    18622 1
   19369    18579    18580 1
   19370    18579    18623 1
   19371    18579    18624 1
   19372    18580    18581 1
   19373    18580    18625 1
   19374    18580    18626 1
   19375    18581    18582 1
   19376    18581    18627 1
   19377    18581    18628 1
   19378    18582    18629 1
   19379    18582    18630 1
   19380    18582    18631 1
   19381    18583    18584 1
   19382    18583    18632 1
   19383    18583    18633 1
   19384    18584    18585 1
   19385    18585    18586 1
   19386    18585    18634 1
   19387    18585    18635 1
   19388    18586    18587 1
   19389    18586    18593 1
   19390    18586    18636 1
   19391    18587    18588 1
   19392    18587    18637 1
   19393    18587    18638 1
   19394    18588    18589 1
   19395    18588    18639 1
   19396    18588    18640 1
   19397    18589    18590 1
   19398    18589    18641 1
   19399    18589    18642 1
   19400    18590    18591 1
   19401    18590    18643 1
   19402    18590    18644 1
   19403    18591    18592 1
   19404    18591    18645 1
   19405    18591    18646 1
   19406    18592    18647 1
   19407    18592    18648 1
   19408    18592    18649 1
   19409    18593    18594 1
   19410    18593    18650 1
   19411    18593    18651 1
   19412    18594    18595 1
   19413    18594    18652 1
   19414    18594    18653 1
   19415    18595    18596 1
   19416    18595    18654 1
   19417    18595    18655 1
   19418    18596    18597 1
   19419    18596    18656 1
   19420    18596    18657 1
   19421    18597    18598 1
   19422    18597    18658 1
   19423    18597    18659 1
   19424    18598    18599 1
   19425    18598    18660 1
   19426    18598    18661 1
   19427    18599    18600 1
   19428    18599    18662 1
   19429    18599    18663 1
   19430    18600    18664 1
   19431    18600    18665 1
   19432    18600    18666 1
   19433    18667    18668 1
   19434    18667    18674 1
   19435    18667    18706 1
   19436    18668    18669 1
   19437    18668    18672 1
   19438    18669    18670 1
   19439    18669    18673 1
   19440    18670    18671 1
   19441    18671    18672 1
   19442    18671    18682 1
   19443    18672    18678 1
   19444    18673    18674 1
   19445    18673    18677 1
   19446    18674    18675 1
   19447    18675    18676 1
   19448    18675    18679 1
   19449    18676    18677 1
   19450    18680    18681 1
   19451    18680    18688 1
   19452    18681    18682 1
   19453    18681    18689 1
   19454    18682    18683 1
   19455    18683    18684 1
   19456    18683    18687 1
   19457    18684    18685 1
   19458    18685    18686 1
   19459    18686    18687 1
   19460    18687    18688 1
   19461    18688    18798 1
   19462    18690    18691 1
   19463    18690    18723 1
   19464    18690    18724 1
   19465    18690    18725 1
   19466    18691    18692 1
   19467    18691    18726 1
   19468    18691    18727 1
   19469    18692    18693 1
   19470    18692    18728 1
   19471    18692    18729 1
   19472    18693    18694 1
   19473    18693    18730 1
   19474    18693    18731 1
   19475    18694    18695 1
   19476    18694    18732 1
   19477    18694    18733 1
   19478    18695    18696 1
   19479    18695    18734 1
   19480    18695    18735 1
   19481    18696    18697 1
   19482    18696    18736 1
   19483    18696    18737 1
   19484    18697    18698 1
   19485    18697    18738 1
   19486    18697    18739 1
   19487    18698    18699 1
   19488    18698    18705 1
   19489    18698    18740 1
   19490    18699    18700 1
   19491    18699    18741 1
   19492    18699    18742 1
   19493    18700    18701 1
   19494    18700    18743 1
   19495    18700    18744 1
   19496    18701    18702 1
   19497    18701    18745 1
   19498    18701    18746 1
   19499    18702    18703 1
   19500    18702    18747 1
   19501    18702    18748 1
   19502    18703    18704 1
   19503    18703    18749 1
   19504    18703    18750 1
   19505    18704    18751 1
   19506    18704    18752 1
   19507    18704    18753 1
   19508    18705    18706 1
   19509    18705    18754 1
   19510    18705    18755 1
   19511    18706    18707 1
   19512    18707    18708 1
   19513    18707    18756 1
   19514    18707    18757 1
   19515    18708    18709 1
   19516    18708    18715 1
   19517    18708    18758 1
   19518    18709    18710 1
   19519    18709    18759 1
   19520    18709    18760 1
   19521    18710    18711 1
   19522    18710    18761 1
   19523    18710    18762 1
   19524    18711    18712 1
   19525    18711    18763 1
   19526    18711    18764 1
   19527    18712    18713 1
   19528    18712    18765 1
   19529    18712    18766 1
   19530    18713    18714 1
   19531    18713    18767 1
   19532    18713    18768 1
   19533    18714    18769 1
   19534    18714    18770 1
   19535    18714    18771 1
   19536    18715    18716 1
   19537    18715    18772 1
   19538    18715    18773 1
   19539    18716    18717 1
   19540    18716    18774 1
   19541    18716    18775 1
   19542    18717    18718 1
   19543    18717    18776 1
   19544    18717    18777 1
   19545    18718    18719 1
   19546    18718    18778 1
   19547    18718    18779 1
   19548    18719    18720 1
   19549    18719    18780 1
   19550    18719    18781 1
   19551    18720    18721 1
   19552    18720    18782 1
   19553    18720    18783 1
   19554    18721    18722 1
   19555    18721    18784 1
   19556    18721    18785 1
   19557    18722    18786 1
   19558    18722    18787 1
   19559    18722    18788 1
   19560    18789    18790 1
   19561    18789    18796 1
   19562    18789    18828 1
   19563    18790    18791 1
   19564    18790    18794 1
   19565    18791    18792 1
   19566    18791    18795 1
   19567    18792    18793 1
   19568    18793    18794 1
   19569    18793    18804 1
   19570    18794    18800 1
   19571    18795    18796 1
   19572    18795    18799 1
   19573    18796    18797 1
   19574    18797    18798 1
   19575    18797    18801 1
   19576    18798    18799 1
   19577    18802    18803 1
   19578    18802    18810 1
   19579    18803    18804 1
   19580    18803    18811 1
   19581    18804    18805 1
   19582    18805    18806 1
   19583    18805    18809 1
   19584    18806    18807 1
   19585    18807    18808 1
   19586    18808    18809 1
   19587    18809    18810 1
   19588    18810    18920 1
   19589    18812    18813 1
   19590    18812    18845 1
   19591    18812    18846 1
   19592    18812    18847 1
   19593    18813    18814 1
   19594    18813    18848 1
   19595    18813    18849 1
   19596    18814    18815 1
   19597    18814    18850 1
   19598    18814    18851 1
   19599    18815    18816 1
   19600    18815    18852 1
   19601    18815    18853 1
   19602    18816    18817 1
   19603    18816    18854 1
   19604    18816    18855 1
   19605    18817    18818 1
   19606    18817    18856 1
   19607    18817    18857 1
   19608    18818    18819 1
   19609    18818    18858 1
   19610    18818    18859 1
   19611    18819    18820 1
   19612    18819    18860 1
   19613    18819    18861 1
   19614    18820    18821 1
   19615    18820    18827 1
   19616    18820    18862 1
   19617    18821    18822 1
   19618    18821    18863 1
   19619    18821    18864 1
   19620    18822    18823 1
   19621    18822    18865 1
   19622    18822    18866 1
   19623    18823    18824 1
   19624    18823    18867 1
   19625    18823    18868 1
   19626    18824    18825 1
   19627    18824    18869 1
   19628    18824    18870 1
   19629    18825    18826 1
   19630    18825    18871 1
   19631    18825    18872 1
   19632    18826    18873 1
   19633    18826    18874 1
   19634    18826    18875 1
   19635    18827    18828 1
   19636    18827    18876 1
   19637    18827    18877 1
   19638    18828    18829 1
   19639    18829    18830 1
   19640    18829    18878 1
   19641    18829    18879 1
   19642    18830    18831 1
   19643    18830    18837 1
   19644    18830    18880 1
   19645    18831    18832 1
   19646    18831    18881 1
   19647    18831    18882 1
   19648    18832    18833 1
   19649    18832    18883 1
   19650    18832    18884 1
   19651    18833    18834 1
   19652    18833    18885 1
   19653    18833    18886 1
   19654    18834    18835 1
   19655    18834    18887 1
   19656    18834    18888 1
   19657    18835    18836 1
   19658    18835    18889 1
   19659    18835    18890 1
   19660    18836    18891 1
   19661    18836    18892 1
   19662    18836    18893 1
   19663    18837    18838 1
   19664    18837    18894 1
   19665    18837    18895 1
   19666    18838    18839 1
   19667    18838    18896 1
   19668    18838    18897 1
   19669    18839    18840 1
   19670    18839    18898 1
   19671    18839    18899 1
   19672    18840    18841 1
   19673    18840    18900 1
   19674    18840    18901 1
   19675    18841    18842 1
   19676    18841    18902 1
   19677    18841    18903 1
   19678    18842    18843 1
   19679    18842    18904 1
   19680    18842    18905 1
   19681    18843    18844 1
   19682    18843    18906 1
   19683    18843    18907 1
   19684    18844    18908 1
   19685    18844    18909 1
   19686    18844    18910 1
   19687    18911    18912 1
   19688    18911    18918 1
   19689    18911    18950 1
   19690    18912    18913 1
   19691    18912    18916 1
   19692    18913    18914 1
   19693    18913    18917 1
   19694    18914    18915 1
   19695    18915    18916 1
   19696    18915    18926 1
   19697    18916    18922 1
   19698    18917    18918 1
   19699    18917    18921 1
   19700    18918    18919 1
   19701    18919    18920 1
   19702    18919    18923 1
   19703    18920    18921 1
   19704    18924    18925 1
   19705    18924    18932 1
   19706    18925    18926 1
   19707    18925    18933 1
   19708    18926    18927 1
   19709    18927    18928 1
   19710    18927    18931 1
   19711    18928    18929 1
   19712    18929    18930 1
   19713    18930    18931 1
   19714    18931    18932 1
   19715    18932    19042 1
   19716    18934    18935 1
   19717    18934    18967 1
   19718    18934    18968 1
   19719    18934    18969 1
   19720    18935    18936 1
   19721    18935    18970 1
   19722    18935    18971 1
   19723    18936    18937 1
   19724    18936    18972 1
   19725    18936    18973 1
   19726    18937    18938 1
   19727    18937    18974 1
   19728    18937    18975 1
   19729    18938    18939 1
   19730    18938    18976 1
   19731    18938    18977 1
   19732    18939    18940 1
   19733    18939    18978 1
   19734    18939    18979 1
   19735    18940    18941 1
   19736    18940    18980 1
   19737    18940    18981 1
   19738    18941    18942 1
   19739    18941    18982 1
   19740    18941    18983 1
   19741    18942    18943 1
   19742    18942    18949 1
   19743    18942    18984 1
   19744    18943    18944 1
   19745    18943    18985 1
   19746    18943    18986 1
   19747    18944    18945 1
   19748    18944    18987 1
   19749    18944    18988 1
   19750    18945    18946 1
   19751    18945    18989 1
   19752    18945    18990 1
   19753    18946    18947 1
   19754    18946    18991 1
   19755    18946    18992 1
   19756    18947    18948 1
   19757    18947    18993 1
   19758    18947    18994 1
   19759    18948    18995 1
   19760    18948    18996 1
   19761    18948    18997 1
   19762    18949    18950 1
   19763    18949    18998 1
   19764    18949    18999 1
   19765    18950    18951 1
   19766    18951    18952 1
   19767    18951    19000 1
   19768    18951    19001 1
   19769    18952    18953 1
   19770    18952    18959 1
   19771    18952    19002 1
   19772    18953    18954 1
   19773    18953    19003 1
   19774    18953    19004 1
   19775    18954    18955 1
   19776    18954    19005 1
   19777    18954    19006 1
   19778    18955    18956 1
   19779    18955    19007 1
   19780    18955    19008 1
   19781    18956    18957 1
   19782    18956    19009 1
   19783    18956    19010 1
   19784    18957    18958 1
   19785    18957    19011 1
   19786    18957    19012 1
   19787    18958    19013 1
   19788    18958    19014 1
   19789    18958    19015 1
   19790    18959    18960 1
   19791    18959    19016 1
   19792    18959    19017 1
   19793    18960    18961 1
   19794    18960    19018 1
   19795    18960    19019 1
   19796    18961    18962 1
   19797    18961    19020 1
   19798    18961    19021 1
   19799    18962    18963 1
   19800    18962    19022 1
   19801    18962    19023 1
   19802    18963    18964 1
   19803    18963    19024 1
   19804    18963    19025 1
   19805    18964    18965 1
   19806    18964    19026 1
   19807    18964    19027 1
   19808    18965    18966 1
   19809    18965    19028 1
   19810    18965    19029 1
   19811    18966    19030 1
   19812    18966    19031 1
   19813    18966    19032 1
   19814    19033    19034 1
   19815    19033    19040 1
   19816    19033    19072 1
   19817    19034    19035 1
   19818    19034    19038 1
   19819    19035    19036 1
   19820    19035    19039 1
   19821    19036    19037 1
   19822    19037    19038 1
   19823    19037    19048 1
   19824    19038    19044 1
   19825    19039    19040 1
   19826    19039    19043 1
   19827    19040    19041 1
   19828    19041    19042 1
   19829    19041    19045 1
   19830    19042    19043 1
   19831    19046    19047 1
   19832    19046    19054 1
   19833    19047    19048 1
   19834    19047    19055 1
   19835    19048    19049 1
   19836    19049    19050 1
   19837    19049    19053 1
   19838    19050    19051 1
   19839    19051    19052 1
   19840    19052    19053 1
   19841    19053    19054 1
   19842    19054    19164 1
   19843    19056    19057 1
   19844    19056    19089 1
   19845    19056    19090 1
   19846    19056    19091 1
   19847    19057    19058 1
   19848    19057    19092 1
   19849    19057    19093 1
   19850    19058    19059 1
   19851    19058    19094 1
   19852    19058    19095 1
   19853    19059    19060 1
   19854    19059    19096 1
   19855    19059    19097 1
   19856    19060    19061 1
   19857    19060    19098 1
   19858    19060    19099 1
   19859    19061    19062 1
   19860    19061    19100 1
   19861    19061    19101 1
   19862    19062    19063 1
   19863    19062    19102 1
   19864    19062    19103 1
   19865    19063    19064 1
   19866    19063    19104 1
   19867    19063    19105 1
   19868    19064    19065 1
   19869    19064    19071 1
   19870    19064    19106 1
   19871    19065    19066 1
   19872    19065    19107 1
   19873    19065    19108 1
   19874    19066    19067 1
   19875    19066    19109 1
   19876    19066    19110 1
   19877    19067    19068 1
   19878    19067    19111 1
   19879    19067    19112 1
   19880    19068    19069 1
   19881    19068    19113 1
   19882    19068    19114 1
   19883    19069    19070 1
   19884    19069    19115 1
   19885    19069    19116 1
   19886    19070    19117 1
   19887    19070    19118 1
   19888    19070    19119 1
   19889    19071    19072 1
   19890    19071    19120 1
   19891    19071    19121 1
   19892    19072    19073 1
   19893    19073    19074 1
   19894    19073    19122 1
   19895    19073    19123 1
   19896    19074    19075 1
   19897    19074    19081 1
   19898    19074    19124 1
   19899    19075    19076 1
   19900    19075    19125 1
   19901    19075    19126 1
   19902    19076    19077 1
   19903    19076    19127 1
   19904    19076    19128 1
   19905    19077    19078 1
   19906    19077    19129 1
   19907    19077    19130 1
   19908    19078    19079 1
   19909    19078    19131 1
   19910    19078    19132 1
   19911    19079    19080 1
   19912    19079    19133 1
   19913    19079    19134 1
   19914    19080    19135 1
   19915    19080    19136 1
   19916    19080    19137 1
   19917    19081    19082 1
   19918    19081    19138 1
   19919    19081    19139 1
   19920    19082    19083 1
   19921    19082    19140 1
   19922    19082    19141 1
   19923    19083    19084 1
   19924    19083    19142 1
   19925    19083    19143 1
   19926    19084    19085 1
   19927    19084    19144 1
   19928    19084    19145 1
   19929    19085    19086 1
   19930    19085    19146 1
   19931    19085    19147 1
   19932    19086    19087 1
   19933    19086    19148 1
   19934    19086    19149 1
   19935    19087    19088 1
   19936    19087    19150 1
   19937    19087    19151 1
   19938    19088    19152 1
   19939    19088    19153 1
   19940    19088    19154 1
   19941    19155    19156 1
   19942    19155    19162 1
   19943    19155    19194 1
   19944    19156    19157 1
   19945    19156    19160 1
   19946    19157    19158 1
   19947    19157    19161 1
   19948    19158    19159 1
   19949    19159    19160 1
   19950    19159    19170 1
   19951    19160    19166 1
   19952    19161    19162 1
   19953    19161    19165 1
   19954    19162    19163 1
   19955    19163    19164 1
   19956    19163    19167 1
   19957    19164    19165 1
   19958    19168    19169 1
   19959    19168    19176 1
   19960    19169    19170 1
   19961    19169    19177 1
   19962    19170    19171 1
   19963    19171    19172 1
   19964    19171    19175 1
   19965    19172    19173 1
   19966    19173    19174 1
   19967    19174    19175 1
   19968    19175    19176 1
   19969    19176    19286 1
   19970    19178    19179 1
   19971    19178    19211 1
   19972    19178    19212 1
   19973    19178    19213 1
   19974    19179    19180 1
   19975    19179    19214 1
   19976    19179    19215 1
   19977    19180    19181 1
   19978    19180    19216 1
   19979    19180    19217 1
   19980    19181    19182 1
   19981    19181    19218 1
   19982    19181    19219 1
   19983    19182    19183 1
   19984    19182    19220 1
   19985    19182    19221 1
   19986    19183    19184 1
   19987    19183    19222 1
   19988    19183    19223 1
   19989    19184    19185 1
   19990    19184    19224 1
   19991    19184    19225 1
   19992    19185    19186 1
   19993    19185    19226 1
   19994    19185    19227 1
   19995    19186    19187 1
   19996    19186    19193 1
   19997    19186    19228 1
   19998    19187    19188 1
   19999    19187    19229 1
   20000    19187    19230 1
   20001    19188    19189 1
   20002    19188    19231 1
   20003    19188    19232 1
   20004    19189    19190 1
   20005    19189    19233 1
   20006    19189    19234 1
   20007    19190    19191 1
   20008    19190    19235 1
   20009    19190    19236 1
   20010    19191    19192 1
   20011    19191    19237 1
   20012    19191    19238 1
   20013    19192    19239 1
   20014    19192    19240 1
   20015    19192    19241 1
   20016    19193    19194 1
   20017    19193    19242 1
   20018    19193    19243 1
   20019    19194    19195 1
   20020    19195    19196 1
   20021    19195    19244 1
   20022    19195    19245 1
   20023    19196    19197 1
   20024    19196    19203 1
   20025    19196    19246 1
   20026    19197    19198 1
   20027    19197    19247 1
   20028    19197    19248 1
   20029    19198    19199 1
   20030    19198    19249 1
   20031    19198    19250 1
   20032    19199    19200 1
   20033    19199    19251 1
   20034    19199    19252 1
   20035    19200    19201 1
   20036    19200    19253 1
   20037    19200    19254 1
   20038    19201    19202 1
   20039    19201    19255 1
   20040    19201    19256 1
   20041    19202    19257 1
   20042    19202    19258 1
   20043    19202    19259 1
   20044    19203    19204 1
   20045    19203    19260 1
   20046    19203    19261 1
   20047    19204    19205 1
   20048    19204    19262 1
   20049    19204    19263 1
   20050    19205    19206 1
   20051    19205    19264 1
   20052    19205    19265 1
   20053    19206    19207 1
   20054    19206    19266 1
   20055    19206    19267 1
   20056    19207    19208 1
   20057    19207    19268 1
   20058    19207    19269 1
   20059    19208    19209 1
   20060    19208    19270 1
   20061    19208    19271 1
   20062    19209    19210 1
   20063    19209    19272 1
   20064    19209    19273 1
   20065    19210    19274 1
   20066    19210    19275 1
   20067    19210    19276 1
   20068    19277    19278 1
   20069    19277    19284 1
   20070    19277    19316 1
   20071    19278    19279 1
   20072    19278    19282 1
   20073    19279    19280 1
   20074    19279    19283 1
   20075    19280    19281 1
   20076    19281    19282 1
   20077    19281    19292 1
   20078    19282    19288 1
   20079    19283    19284 1
   20080    19283    19287 1
   20081    19284    19285 1
   20082    19285    19286 1
   20083    19285    19289 1
   20084    19286    19287 1
   20085    19290    19291 1
   20086    19290    19298 1
   20087    19291    19292 1
   20088    19291    19299 1
   20089    19292    19293 1
   20090    19293    19294 1
   20091    19293    19297 1
   20092    19294    19295 1
   20093    19295    19296 1
   20094    19296    19297 1
   20095    19297    19298 1
   20096    19298    19408 1
   20097    19300    19301 1
   20098    19300    19333 1
   20099    19300    19334 1
   20100    19300    19335 1
   20101    19301    19302 1
   20102    19301    19336 1
   20103    19301    19337 1
   20104    19302    19303 1
   20105    19302    19338 1
   20106    19302    19339 1
   20107    19303    19304 1
   20108    19303    19340 1
   20109    19303    19341 1
   20110    19304    19305 1
   20111    19304    19342 1
   20112    19304    19343 1
   20113    19305    19306 1
   20114    19305    19344 1
   20115    19305    19345 1
   20116    19306    19307 1
   20117    19306    19346 1
   20118    19306    19347 1
   20119    19307    19308 1
   20120    19307    19348 1
   20121    19307    19349 1
   20122    19308    19309 1
   20123    19308    19315 1
   20124    19308    19350 1
   20125    19309    19310 1
   20126    19309    19351 1
   20127    19309    19352 1
   20128    19310    19311 1
   20129    19310    19353 1
   20130    19310    19354 1
   20131    19311    19312 1
   20132    19311    19355 1
   20133    19311    19356 1
   20134    19312    19313 1
   20135    19312    19357 1
   20136    19312    19358 1
   20137    19313    19314 1
   20138    19313    19359 1
   20139    19313    19360 1
   20140    19314    19361 1
   20141    19314    19362 1
   20142    19314    19363 1
   20143    19315    19316 1
   20144    19315    19364 1
   20145    19315    19365 1
   20146    19316    19317 1
   20147    19317    19318 1
   20148    19317    19366 1
   20149    19317    19367 1
   20150    19318    19319 1
   20151    19318    19325 1
   20152    19318    19368 1
   20153    19319    19320 1
   20154    19319    19369 1
   20155    19319    19370 1
   20156    19320    19321 1
   20157    19320    19371 1
   20158    19320    19372 1
   20159    19321    19322 1
   20160    19321    19373 1
   20161    19321    19374 1
   20162    19322    19323 1
   20163    19322    19375 1
   20164    19322    19376 1
   20165    19323    19324 1
   20166    19323    19377 1
   20167    19323    19378 1
   20168    19324    19379 1
   20169    19324    19380 1
   20170    19324    19381 1
   20171    19325    19326 1
   20172    19325    19382 1
   20173    19325    19383 1
   20174    19326    19327 1
   20175    19326    19384 1
   20176    19326    19385 1
   20177    19327    19328 1
   20178    19327    19386 1
   20179    19327    19387 1
   20180    19328    19329 1
   20181    19328    19388 1
   20182    19328    19389 1
   20183    19329    19330 1
   20184    19329    19390 1
   20185    19329    19391 1
   20186    19330    19331 1
   20187    19330    19392 1
   20188    19330    19393 1
   20189    19331    19332 1
   20190    19331    19394 1
   20191    19331    19395 1
   20192    19332    19396 1
   20193    19332    19397 1
   20194    19332    19398 1
   20195    19399    19400 1
   20196    19399    19406 1
   20197    19399    19438 1
   20198    19400    19401 1
   20199    19400    19404 1
   20200    19401    19402 1
   20201    19401    19405 1
   20202    19402    19403 1
   20203    19403    19404 1
   20204    19403    19414 1
   20205    19404    19410 1
   20206    19405    19406 1
   20207    19405    19409 1
   20208    19406    19407 1
   20209    19407    19408 1
   20210    19407    19411 1
   20211    19408    19409 1
   20212    19412    19413 1
   20213    19412    19420 1
   20214    19413    19414 1
   20215    19413    19421 1
   20216    19414    19415 1
   20217    19415    19416 1
   20218    19415    19419 1
   20219    19416    19417 1
   20220    19417    19418 1
   20221    19418    19419 1
   20222    19419    19420 1
   20223    19420    19530 1
   20224    19422    19423 1
   20225    19422    19455 1
   20226    19422    19456 1
   20227    19422    19457 1
   20228    19423    19424 1
   20229    19423    19458 1
   20230    19423    19459 1
   20231    19424    19425 1
   20232    19424    19460 1
   20233    19424    19461 1
   20234    19425    19426 1
   20235    19425    19462 1
   20236    19425    19463 1
   20237    19426    19427 1
   20238    19426    19464 1
   20239    19426    19465 1
   20240    19427    19428 1
   20241    19427    19466 1
   20242    19427    19467 1
   20243    19428    19429 1
   20244    19428    19468 1
   20245    19428    19469 1
   20246    19429    19430 1
   20247    19429    19470 1
   20248    19429    19471 1
   20249    19430    19431 1
   20250    19430    19437 1
   20251    19430    19472 1
   20252    19431    19432 1
   20253    19431    19473 1
   20254    19431    19474 1
   20255    19432    19433 1
   20256    19432    19475 1
   20257    19432    19476 1
   20258    19433    19434 1
   20259    19433    19477 1
   20260    19433    19478 1
   20261    19434    19435 1
   20262    19434    19479 1
   20263    19434    19480 1
   20264    19435    19436 1
   20265    19435    19481 1
   20266    19435    19482 1
   20267    19436    19483 1
   20268    19436    19484 1
   20269    19436    19485 1
   20270    19437    19438 1
   20271    19437    19486 1
   20272    19437    19487 1
   20273    19438    19439 1
   20274    19439    19440 1
   20275    19439    19488 1
   20276    19439    19489 1
   20277    19440    19441 1
   20278    19440    19447 1
   20279    19440    19490 1
   20280    19441    19442 1
   20281    19441    19491 1
   20282    19441    19492 1
   20283    19442    19443 1
   20284    19442    19493 1
   20285    19442    19494 1
   20286    19443    19444 1
   20287    19443    19495 1
   20288    19443    19496 1
   20289    19444    19445 1
   20290    19444    19497 1
   20291    19444    19498 1
   20292    19445    19446 1
   20293    19445    19499 1
   20294    19445    19500 1
   20295    19446    19501 1
   20296    19446    19502 1
   20297    19446    19503 1
   20298    19447    19448 1
   20299    19447    19504 1
   20300    19447    19505 1
   20301    19448    19449 1
   20302    19448    19506 1
   20303    19448    19507 1
   20304    19449    19450 1
   20305    19449    19508 1
   20306    19449    19509 1
   20307    19450    19451 1
   20308    19450    19510 1
   20309    19450    19511 1
   20310    19451    19452 1
   20311    19451    19512 1
   20312    19451    19513 1
   20313    19452    19453 1
   20314    19452    19514 1
   20315    19452    19515 1
   20316    19453    19454 1
   20317    19453    19516 1
   20318    19453    19517 1
   20319    19454    19518 1
   20320    19454    19519 1
   20321    19454    19520 1
   20322    19521    19522 1
   20323    19521    19528 1
   20324    19521    19560 1
   20325    19522    19523 1
   20326    19522    19526 1
   20327    19523    19524 1
   20328    19523    19527 1
   20329    19524    19525 1
   20330    19525    19526 1
   20331    19525    19536 1
   20332    19526    19532 1
   20333    19527    19528 1
   20334    19527    19531 1
   20335    19528    19529 1
   20336    19529    19530 1
   20337    19529    19533 1
   20338    19530    19531 1
   20339    19534    19535 1
   20340    19534    19542 1
   20341    19535    19536 1
   20342    19535    19543 1
   20343    19536    19537 1
   20344    19537    19538 1
   20345    19537    19541 1
   20346    19538    19539 1
   20347    19539    19540 1
   20348    19540    19541 1
   20349    19541    19542 1
   20350    19542    19652 1
   20351    19544    19545 1
   20352    19544    19577 1
   20353    19544    19578 1
   20354    19544    19579 1
   20355    19545    19546 1
   20356    19545    19580 1
   20357    19545    19581 1
   20358    19546    19547 1
   20359    19546    19582 1
   20360    19546    19583 1
   20361    19547    19548 1
   20362    19547    19584 1
   20363    19547    19585 1
   20364    19548    19549 1
   20365    19548    19586 1
   20366    19548    19587 1
   20367    19549    19550 1
   20368    19549    19588 1
   20369    19549    19589 1
   20370    19550    19551 1
   20371    19550    19590 1
   20372    19550    19591 1
   20373    19551    19552 1
   20374    19551    19592 1
   20375    19551    19593 1
   20376    19552    19553 1
   20377    19552    19559 1
   20378    19552    19594 1
   20379    19553    19554 1
   20380    19553    19595 1
   20381    19553    19596 1
   20382    19554    19555 1
   20383    19554    19597 1
   20384    19554    19598 1
   20385    19555    19556 1
   20386    19555    19599 1
   20387    19555    19600 1
   20388    19556    19557 1
   20389    19556    19601 1
   20390    19556    19602 1
   20391    19557    19558 1
   20392    19557    19603 1
   20393    19557    19604 1
   20394    19558    19605 1
   20395    19558    19606 1
   20396    19558    19607 1
   20397    19559    19560 1
   20398    19559    19608 1
   20399    19559    19609 1
   20400    19560    19561 1
   20401    19561    19562 1
   20402    19561    19610 1
   20403    19561    19611 1
   20404    19562    19563 1
   20405    19562    19569 1
   20406    19562    19612 1
   20407    19563    19564 1
   20408    19563    19613 1
   20409    19563    19614 1
   20410    19564    19565 1
   20411    19564    19615 1
   20412    19564    19616 1
   20413    19565    19566 1
   20414    19565    19617 1
   20415    19565    19618 1
   20416    19566    19567 1
   20417    19566    19619 1
   20418    19566    19620 1
   20419    19567    19568 1
   20420    19567    19621 1
   20421    19567    19622 1
   20422    19568    19623 1
   20423    19568    19624 1
   20424    19568    19625 1
   20425    19569    19570 1
   20426    19569    19626 1
   20427    19569    19627 1
   20428    19570    19571 1
   20429    19570    19628 1
   20430    19570    19629 1
   20431    19571    19572 1
   20432    19571    19630 1
   20433    19571    19631 1
   20434    19572    19573 1
   20435    19572    19632 1
   20436    19572    19633 1
   20437    19573    19574 1
   20438    19573    19634 1
   20439    19573    19635 1
   20440    19574    19575 1
   20441    19574    19636 1
   20442    19574    19637 1
   20443    19575    19576 1
   20444    19575    19638 1
   20445    19575    19639 1
   20446    19576    19640 1
   20447    19576    19641 1
   20448    19576    19642 1
   20449    19643    19644 1
   20450    19643    19650 1
   20451    19643    19682 1
   20452    19644    19645 1
   20453    19644    19648 1
   20454    19645    19646 1
   20455    19645    19649 1
   20456    19646    19647 1
   20457    19647    19648 1
   20458    19647    19658 1
   20459    19648    19654 1
   20460    19649    19650 1
   20461    19649    19653 1
   20462    19650    19651 1
   20463    19651    19652 1
   20464    19651    19655 1
   20465    19652    19653 1
   20466    19656    19657 1
   20467    19656    19664 1
   20468    19657    19658 1
   20469    19657    19665 1
   20470    19658    19659 1
   20471    19659    19660 1
   20472    19659    19663 1
   20473    19660    19661 1
   20474    19661    19662 1
   20475    19662    19663 1
   20476    19663    19664 1
   20477    19664    19774 1
   20478    19666    19667 1
   20479    19666    19699 1
   20480    19666    19700 1
   20481    19666    19701 1
   20482    19667    19668 1
   20483    19667    19702 1
   20484    19667    19703 1
   20485    19668    19669 1
   20486    19668    19704 1
   20487    19668    19705 1
   20488    19669    19670 1
   20489    19669    19706 1
   20490    19669    19707 1
   20491    19670    19671 1
   20492    19670    19708 1
   20493    19670    19709 1
   20494    19671    19672 1
   20495    19671    19710 1
   20496    19671    19711 1
   20497    19672    19673 1
   20498    19672    19712 1
   20499    19672    19713 1
   20500    19673    19674 1
   20501    19673    19714 1
   20502    19673    19715 1
   20503    19674    19675 1
   20504    19674    19681 1
   20505    19674    19716 1
   20506    19675    19676 1
   20507    19675    19717 1
   20508    19675    19718 1
   20509    19676    19677 1
   20510    19676    19719 1
   20511    19676    19720 1
   20512    19677    19678 1
   20513    19677    19721 1
   20514    19677    19722 1
   20515    19678    19679 1
   20516    19678    19723 1
   20517    19678    19724 1
   20518    19679    19680 1
   20519    19679    19725 1
   20520    19679    19726 1
   20521    19680    19727 1
   20522    19680    19728 1
   20523    19680    19729 1
   20524    19681    19682 1
   20525    19681    19730 1
   20526    19681    19731 1
   20527    19682    19683 1
   20528    19683    19684 1
   20529    19683    19732 1
   20530    19683    19733 1
   20531    19684    19685 1
   20532    19684    19691 1
   20533    19684    19734 1
   20534    19685    19686 1
   20535    19685    19735 1
   20536    19685    19736 1
   20537    19686    19687 1
   20538    19686    19737 1
   20539    19686    19738 1
   20540    19687    19688 1
   20541    19687    19739 1
   20542    19687    19740 1
   20543    19688    19689 1
   20544    19688    19741 1
   20545    19688    19742 1
   20546    19689    19690 1
   20547    19689    19743 1
   20548    19689    19744 1
   20549    19690    19745 1
   20550    19690    19746 1
   20551    19690    19747 1
   20552    19691    19692 1
   20553    19691    19748 1
   20554    19691    19749 1
   20555    19692    19693 1
   20556    19692    19750 1
   20557    19692    19751 1
   20558    19693    19694 1
   20559    19693    19752 1
   20560    19693    19753 1
   20561    19694    19695 1
   20562    19694    19754 1
   20563    19694    19755 1
   20564    19695    19696 1
   20565    19695    19756 1
   20566    19695    19757 1
   20567    19696    19697 1
   20568    19696    19758 1
   20569    19696    19759 1
   20570    19697    19698 1
   20571    19697    19760 1
   20572    19697    19761 1
   20573    19698    19762 1
   20574    19698    19763 1
   20575    19698    19764 1
   20576    19765    19766 1
   20577    19765    19772 1
   20578    19765    19804 1
   20579    19766    19767 1
   20580    19766    19770 1
   20581    19767    19768 1
   20582    19767    19771 1
   20583    19768    19769 1
   20584    19769    19770 1
   20585    19769    19780 1
   20586    19770    19776 1
   20587    19771    19772 1
   20588    19771    19775 1
   20589    19772    19773 1
   20590    19773    19774 1
   20591    19773    19777 1
   20592    19774    19775 1
   20593    19778    19779 1
   20594    19778    19786 1
   20595    19779    19780 1
   20596    19779    19787 1
   20597    19780    19781 1
   20598    19781    19782 1
   20599    19781    19785 1
   20600    19782    19783 1
   20601    19783    19784 1
   20602    19784    19785 1
   20603    19785    19786 1
   20604    19786    19896 1
   20605    19788    19789 1
   20606    19788    19821 1
   20607    19788    19822 1
   20608    19788    19823 1
   20609    19789    19790 1
   20610    19789    19824 1
   20611    19789    19825 1
   20612    19790    19791 1
   20613    19790    19826 1
   20614    19790    19827 1
   20615    19791    19792 1
   20616    19791    19828 1
   20617    19791    19829 1
   20618    19792    19793 1
   20619    19792    19830 1
   20620    19792    19831 1
   20621    19793    19794 1
   20622    19793    19832 1
   20623    19793    19833 1
   20624    19794    19795 1
   20625    19794    19834 1
   20626    19794    19835 1
   20627    19795    19796 1
   20628    19795    19836 1
   20629    19795    19837 1
   20630    19796    19797 1
   20631    19796    19803 1
   20632    19796    19838 1
   20633    19797    19798 1
   20634    19797    19839 1
   20635    19797    19840 1
   20636    19798    19799 1
   20637    19798    19841 1
   20638    19798    19842 1
   20639    19799    19800 1
   20640    19799    19843 1
   20641    19799    19844 1
   20642    19800    19801 1
   20643    19800    19845 1
   20644    19800    19846 1
   20645    19801    19802 1
   20646    19801    19847 1
   20647    19801    19848 1
   20648    19802    19849 1
   20649    19802    19850 1
   20650    19802    19851 1
   20651    19803    19804 1
   20652    19803    19852 1
   20653    19803    19853 1
   20654    19804    19805 1
   20655    19805    19806 1
   20656    19805    19854 1
   20657    19805    19855 1
   20658    19806    19807 1
   20659    19806    19813 1
   20660    19806    19856 1
   20661    19807    19808 1
   20662    19807    19857 1
   20663    19807    19858 1
   20664    19808    19809 1
   20665    19808    19859 1
   20666    19808    19860 1
   20667    19809    19810 1
   20668    19809    19861 1
   20669    19809    19862 1
   20670    19810    19811 1
   20671    19810    19863 1
   20672    19810    19864 1
   20673    19811    19812 1
   20674    19811    19865 1
   20675    19811    19866 1
   20676    19812    19867 1
   20677    19812    19868 1
   20678    19812    19869 1
   20679    19813    19814 1
   20680    19813    19870 1
   20681    19813    19871 1
   20682    19814    19815 1
   20683    19814    19872 1
   20684    19814    19873 1
   20685    19815    19816 1
   20686    19815    19874 1
   20687    19815    19875 1
   20688    19816    19817 1
   20689    19816    19876 1
   20690    19816    19877 1
   20691    19817    19818 1
   20692    19817    19878 1
   20693    19817    19879 1
   20694    19818    19819 1
   20695    19818    19880 1
   20696    19818    19881 1
   20697    19819    19820 1
   20698    19819    19882 1
   20699    19819    19883 1
   20700    19820    19884 1
   20701    19820    19885 1
   20702    19820    19886 1
   20703    19887    19888 1
   20704    19887    19894 1
   20705    19887    19926 1
   20706    19888    19889 1
   20707    19888    19892 1
   20708    19889    19890 1
   20709    19889    19893 1
   20710    19890    19891 1
   20711    19891    19892 1
   20712    19891    19902 1
   20713    19892    19898 1
   20714    19893    19894 1
   20715    19893    19897 1
   20716    19894    19895 1
   20717    19895    19896 1
   20718    19895    19899 1
   20719    19896    19897 1
   20720    19900    19901 1
   20721    19900    19908 1
   20722    19901    19902 1
   20723    19901    19909 1
   20724    19902    19903 1
   20725    19903    19904 1
   20726    19903    19907 1
   20727    19904    19905 1
   20728    19905    19906 1
   20729    19906    19907 1
   20730    19907    19908 1
   20731    19908    20018 1
   20732    19910    19911 1
   20733    19910    19943 1
   20734    19910    19944 1
   20735    19910    19945 1
   20736    19911    19912 1
   20737    19911    19946 1
   20738    19911    19947 1
   20739    19912    19913 1
   20740    19912    19948 1
   20741    19912    19949 1
   20742    19913    19914 1
   20743    19913    19950 1
   20744    19913    19951 1
   20745    19914    19915 1
   20746    19914    19952 1
   20747    19914    19953 1
   20748    19915    19916 1
   20749    19915    19954 1
   20750    19915    19955 1
   20751    19916    19917 1
   20752    19916    19956 1
   20753    19916    19957 1
   20754    19917    19918 1
   20755    19917    19958 1
   20756    19917    19959 1
   20757    19918    19919 1
   20758    19918    19925 1
   20759    19918    19960 1
   20760    19919    19920 1
   20761    19919    19961 1
   20762    19919    19962 1
   20763    19920    19921 1
   20764    19920    19963 1
   20765    19920    19964 1
   20766    19921    19922 1
   20767    19921    19965 1
   20768    19921    19966 1
   20769    19922    19923 1
   20770    19922    19967 1
   20771    19922    19968 1
   20772    19923    19924 1
   20773    19923    19969 1
   20774    19923    19970 1
   20775    19924    19971 1
   20776    19924    19972 1
   20777    19924    19973 1
   20778    19925    19926 1
   20779    19925    19974 1
   20780    19925    19975 1
   20781    19926    19927 1
   20782    19927    19928 1
   20783    19927    19976 1
   20784    19927    19977 1
   20785    19928    19929 1
   20786    19928    19935 1
   20787    19928    19978 1
   20788    19929    19930 1
   20789    19929    19979 1
   20790    19929    19980 1
   20791    19930    19931 1
   20792    19930    19981 1
   20793    19930    19982 1
   20794    19931    19932 1
   20795    19931    19983 1
   20796    19931    19984 1
   20797    19932    19933 1
   20798    19932    19985 1
   20799    19932    19986 1
   20800    19933    19934 1
   20801    19933    19987 1
   20802    19933    19988 1
   20803    19934    19989 1
   20804    19934    19990 1
   20805    19934    19991 1
   20806    19935    19936 1
   20807    19935    19992 1
   20808    19935    19993 1
   20809    19936    19937 1
   20810    19936    19994 1
   20811    19936    19995 1
   20812    19937    19938 1
   20813    19937    19996 1
   20814    19937    19997 1
   20815    19938    19939 1
   20816    19938    19998 1
   20817    19938    19999 1
   20818    19939    19940 1
   20819    19939    20000 1
   20820    19939    20001 1
   20821    19940    19941 1
   20822    19940    20002 1
   20823    19940    20003 1
   20824    19941    19942 1
   20825    19941    20004 1
   20826    19941    20005 1
   20827    19942    20006 1
   20828    19942    20007 1
   20829    19942    20008 1
   20830    20009    20010 1
   20831    20009    20016 1
   20832    20009    20048 1
   20833    20010    20011 1
   20834    20010    20014 1
   20835    20011    20012 1
   20836    20011    20015 1
   20837    20012    20013 1
   20838    20013    20014 1
   20839    20013    20024 1
   20840    20014    20020 1
   20841    20015    20016 1
   20842    20015    20019 1
   20843    20016    20017 1
   20844    20017    20018 1
   20845    20017    20021 1
   20846    20018    20019 1
   20847    20022    20023 1
   20848    20022    20030 1
   20849    20023    20024 1
   20850    20023    20031 1
   20851    20024    20025 1
   20852    20025    20026 1
   20853    20025    20029 1
   20854    20026    20027 1
   20855    20027    20028 1
   20856    20028    20029 1
   20857    20029    20030 1
   20858    20030    20140 1
   20859    20032    20033 1
   20860    20032    20065 1
   20861    20032    20066 1
   20862    20032    20067 1
   20863    20033    20034 1
   20864    20033    20068 1
   20865    20033    20069 1
   20866    20034    20035 1
   20867    20034    20070 1
   20868    20034    20071 1
   20869    20035    20036 1
   20870    20035    20072 1
   20871    20035    20073 1
   20872    20036    20037 1
   20873    20036    20074 1
   20874    20036    20075 1
   20875    20037    20038 1
   20876    20037    20076 1
   20877    20037    20077 1
   20878    20038    20039 1
   20879    20038    20078 1
   20880    20038    20079 1
   20881    20039    20040 1
   20882    20039    20080 1
   20883    20039    20081 1
   20884    20040    20041 1
   20885    20040    20047 1
   20886    20040    20082 1
   20887    20041    20042 1
   20888    20041    20083 1
   20889    20041    20084 1
   20890    20042    20043 1
   20891    20042    20085 1
   20892    20042    20086 1
   20893    20043    20044 1
   20894    20043    20087 1
   20895    20043    20088 1
   20896    20044    20045 1
   20897    20044    20089 1
   20898    20044    20090 1
   20899    20045    20046 1
   20900    20045    20091 1
   20901    20045    20092 1
   20902    20046    20093 1
   20903    20046    20094 1
   20904    20046    20095 1
   20905    20047    20048 1
   20906    20047    20096 1
   20907    20047    20097 1
   20908    20048    20049 1
   20909    20049    20050 1
   20910    20049    20098 1
   20911    20049    20099 1
   20912    20050    20051 1
   20913    20050    20057 1
   20914    20050    20100 1
   20915    20051    20052 1
   20916    20051    20101 1
   20917    20051    20102 1
   20918    20052    20053 1
   20919    20052    20103 1
   20920    20052    20104 1
   20921    20053    20054 1
   20922    20053    20105 1
   20923    20053    20106 1
   20924    20054    20055 1
   20925    20054    20107 1
   20926    20054    20108 1
   20927    20055    20056 1
   20928    20055    20109 1
   20929    20055    20110 1
   20930    20056    20111 1
   20931    20056    20112 1
   20932    20056    20113 1
   20933    20057    20058 1
   20934    20057    20114 1
   20935    20057    20115 1
   20936    20058    20059 1
   20937    20058    20116 1
   20938    20058    20117 1
   20939    20059    20060 1
   20940    20059    20118 1
   20941    20059    20119 1
   20942    20060    20061 1
   20943    20060    20120 1
   20944    20060    20121 1
   20945    20061    20062 1
   20946    20061    20122 1
   20947    20061    20123 1
   20948    20062    20063 1
   20949    20062    20124 1
   20950    20062    20125 1
   20951    20063    20064 1
   20952    20063    20126 1
   20953    20063    20127 1
   20954    20064    20128 1
   20955    20064    20129 1
   20956    20064    20130 1
   20957    20131    20132 1
   20958    20131    20138 1
   20959    20131    20170 1
   20960    20132    20133 1
   20961    20132    20136 1
   20962    20133    20134 1
   20963    20133    20137 1
   20964    20134    20135 1
   20965    20135    20136 1
   20966    20135    20146 1
   20967    20136    20142 1
   20968    20137    20138 1
   20969    20137    20141 1
   20970    20138    20139 1
   20971    20139    20140 1
   20972    20139    20143 1
   20973    20140    20141 1
   20974    20144    20145 1
   20975    20144    20152 1
   20976    20145    20146 1
   20977    20145    20153 1
   20978    20146    20147 1
   20979    20147    20148 1
   20980    20147    20151 1
   20981    20148    20149 1
   20982    20149    20150 1
   20983    20150    20151 1
   20984    20151    20152 1
   20985    20152    20262 1
   20986    20154    20155 1
   20987    20154    20187 1
   20988    20154    20188 1
   20989    20154    20189 1
   20990    20155    20156 1
   20991    20155    20190 1
   20992    20155    20191 1
   20993    20156    20157 1
   20994    20156    20192 1
   20995    20156    20193 1
   20996    20157    20158 1
   20997    20157    20194 1
   20998    20157    20195 1
   20999    20158    20159 1
   21000    20158    20196 1
   21001    20158    20197 1
   21002    20159    20160 1
   21003    20159    20198 1
   21004    20159    20199 1
   21005    20160    20161 1
   21006    20160    20200 1
   21007    20160    20201 1
   21008    20161    20162 1
   21009    20161    20202 1
   21010    20161    20203 1
   21011    20162    20163 1
   21012    20162    20169 1
   21013    20162    20204 1
   21014    20163    20164 1
   21015    20163    20205 1
   21016    20163    20206 1
   21017    20164    20165 1
   21018    20164    20207 1
   21019    20164    20208 1
   21020    20165    20166 1
   21021    20165    20209 1
   21022    20165    20210 1
   21023    20166    20167 1
   21024    20166    20211 1
   21025    20166    20212 1
   21026    20167    20168 1
   21027    20167    20213 1
   21028    20167    20214 1
   21029    20168    20215 1
   21030    20168    20216 1
   21031    20168    20217 1
   21032    20169    20170 1
   21033    20169    20218 1
   21034    20169    20219 1
   21035    20170    20171 1
   21036    20171    20172 1
   21037    20171    20220 1
   21038    20171    20221 1
   21039    20172    20173 1
   21040    20172    20179 1
   21041    20172    20222 1
   21042    20173    20174 1
   21043    20173    20223 1
   21044    20173    20224 1
   21045    20174    20175 1
   21046    20174    20225 1
   21047    20174    20226 1
   21048    20175    20176 1
   21049    20175    20227 1
   21050    20175    20228 1
   21051    20176    20177 1
   21052    20176    20229 1
   21053    20176    20230 1
   21054    20177    20178 1
   21055    20177    20231 1
   21056    20177    20232 1
   21057    20178    20233 1
   21058    20178    20234 1
   21059    20178    20235 1
   21060    20179    20180 1
   21061    20179    20236 1
   21062    20179    20237 1
   21063    20180    20181 1
   21064    20180    20238 1
   21065    20180    20239 1
   21066    20181    20182 1
   21067    20181    20240 1
   21068    20181    20241 1
   21069    20182    20183 1
   21070    20182    20242 1
   21071    20182    20243 1
   21072    20183    20184 1
   21073    20183    20244 1
   21074    20183    20245 1
   21075    20184    20185 1
   21076    20184    20246 1
   21077    20184    20247 1
   21078    20185    20186 1
   21079    20185    20248 1
   21080    20185    20249 1
   21081    20186    20250 1
   21082    20186    20251 1
   21083    20186    20252 1
   21084    20253    20254 1
   21085    20253    20260 1
   21086    20253    20292 1
   21087    20254    20255 1
   21088    20254    20258 1
   21089    20255    20256 1
   21090    20255    20259 1
   21091    20256    20257 1
   21092    20257    20258 1
   21093    20257    20268 1
   21094    20258    20264 1
   21095    20259    20260 1
   21096    20259    20263 1
   21097    20260    20261 1
   21098    20261    20262 1
   21099    20261    20265 1
   21100    20262    20263 1
   21101    20266    20267 1
   21102    20266    20274 1
   21103    20267    20268 1
   21104    20267    20275 1
   21105    20268    20269 1
   21106    20269    20270 1
   21107    20269    20273 1
   21108    20270    20271 1
   21109    20271    20272 1
   21110    20272    20273 1
   21111    20273    20274 1
   21112    20274    20384 1
   21113    20276    20277 1
   21114    20276    20309 1
   21115    20276    20310 1
   21116    20276    20311 1
   21117    20277    20278 1
   21118    20277    20312 1
   21119    20277    20313 1
   21120    20278    20279 1
   21121    20278    20314 1
   21122    20278    20315 1
   21123    20279    20280 1
   21124    20279    20316 1
   21125    20279    20317 1
   21126    20280    20281 1
   21127    20280    20318 1
   21128    20280    20319 1
   21129    20281    20282 1
   21130    20281    20320 1
   21131    20281    20321 1
   21132    20282    20283 1
   21133    20282    20322 1
   21134    20282    20323 1
   21135    20283    20284 1
   21136    20283    20324 1
   21137    20283    20325 1
   21138    20284    20285 1
   21139    20284    20291 1
   21140    20284    20326 1
   21141    20285    20286 1
   21142    20285    20327 1
   21143    20285    20328 1
   21144    20286    20287 1
   21145    20286    20329 1
   21146    20286    20330 1
   21147    20287    20288 1
   21148    20287    20331 1
   21149    20287    20332 1
   21150    20288    20289 1
   21151    20288    20333 1
   21152    20288    20334 1
   21153    20289    20290 1
   21154    20289    20335 1
   21155    20289    20336 1
   21156    20290    20337 1
   21157    20290    20338 1
   21158    20290    20339 1
   21159    20291    20292 1
   21160    20291    20340 1
   21161    20291    20341 1
   21162    20292    20293 1
   21163    20293    20294 1
   21164    20293    20342 1
   21165    20293    20343 1
   21166    20294    20295 1
   21167    20294    20301 1
   21168    20294    20344 1
   21169    20295    20296 1
   21170    20295    20345 1
   21171    20295    20346 1
   21172    20296    20297 1
   21173    20296    20347 1
   21174    20296    20348 1
   21175    20297    20298 1
   21176    20297    20349 1
   21177    20297    20350 1
   21178    20298    20299 1
   21179    20298    20351 1
   21180    20298    20352 1
   21181    20299    20300 1
   21182    20299    20353 1
   21183    20299    20354 1
   21184    20300    20355 1
   21185    20300    20356 1
   21186    20300    20357 1
   21187    20301    20302 1
   21188    20301    20358 1
   21189    20301    20359 1
   21190    20302    20303 1
   21191    20302    20360 1
   21192    20302    20361 1
   21193    20303    20304 1
   21194    20303    20362 1
   21195    20303    20363 1
   21196    20304    20305 1
   21197    20304    20364 1
   21198    20304    20365 1
   21199    20305    20306 1
   21200    20305    20366 1
   21201    20305    20367 1
   21202    20306    20307 1
   21203    20306    20368 1
   21204    20306    20369 1
   21205    20307    20308 1
   21206    20307    20370 1
   21207    20307    20371 1
   21208    20308    20372 1
   21209    20308    20373 1
   21210    20308    20374 1
   21211    20375    20376 1
   21212    20375    20382 1
   21213    20375    20414 1
   21214    20376    20377 1
   21215    20376    20380 1
   21216    20377    20378 1
   21217    20377    20381 1
   21218    20378    20379 1
   21219    20379    20380 1
   21220    20379    20390 1
   21221    20380    20386 1
   21222    20381    20382 1
   21223    20381    20385 1
   21224    20382    20383 1
   21225    20383    20384 1
   21226    20383    20387 1
   21227    20384    20385 1
   21228    20388    20389 1
   21229    20388    20396 1
   21230    20389    20390 1
   21231    20389    20397 1
   21232    20390    20391 1
   21233    20391    20392 1
   21234    20391    20395 1
   21235    20392    20393 1
   21236    20393    20394 1
   21237    20394    20395 1
   21238    20395    20396 1
   21239    20396    20506 1
   21240    20398    20399 1
   21241    20398    20431 1
   21242    20398    20432 1
   21243    20398    20433 1
   21244    20399    20400 1
   21245    20399    20434 1
   21246    20399    20435 1
   21247    20400    20401 1
   21248    20400    20436 1
   21249    20400    20437 1
   21250    20401    20402 1
   21251    20401    20438 1
   21252    20401    20439 1
   21253    20402    20403 1
   21254    20402    20440 1
   21255    20402    20441 1
   21256    20403    20404 1
   21257    20403    20442 1
   21258    20403    20443 1
   21259    20404    20405 1
   21260    20404    20444 1
   21261    20404    20445 1
   21262    20405    20406 1
   21263    20405    20446 1
   21264    20405    20447 1
   21265    20406    20407 1
   21266    20406    20413 1
   21267    20406    20448 1
   21268    20407    20408 1
   21269    20407    20449 1
   21270    20407    20450 1
   21271    20408    20409 1
   21272    20408    20451 1
   21273    20408    20452 1
   21274    20409    20410 1
   21275    20409    20453 1
   21276    20409    20454 1
   21277    20410    20411 1
   21278    20410    20455 1
   21279    20410    20456 1
   21280    20411    20412 1
   21281    20411    20457 1
   21282    20411    20458 1
   21283    20412    20459 1
   21284    20412    20460 1
   21285    20412    20461 1
   21286    20413    20414 1
   21287    20413    20462 1
   21288    20413    20463 1
   21289    20414    20415 1
   21290    20415    20416 1
   21291    20415    20464 1
   21292    20415    20465 1
   21293    20416    20417 1
   21294    20416    20423 1
   21295    20416    20466 1
   21296    20417    20418 1
   21297    20417    20467 1
   21298    20417    20468 1
   21299    20418    20419 1
   21300    20418    20469 1
   21301    20418    20470 1
   21302    20419    20420 1
   21303    20419    20471 1
   21304    20419    20472 1
   21305    20420    20421 1
   21306    20420    20473 1
   21307    20420    20474 1
   21308    20421    20422 1
   21309    20421    20475 1
   21310    20421    20476 1
   21311    20422    20477 1
   21312    20422    20478 1
   21313    20422    20479 1
   21314    20423    20424 1
   21315    20423    20480 1
   21316    20423    20481 1
   21317    20424    20425 1
   21318    20424    20482 1
   21319    20424    20483 1
   21320    20425    20426 1
   21321    20425    20484 1
   21322    20425    20485 1
   21323    20426    20427 1
   21324    20426    20486 1
   21325    20426    20487 1
   21326    20427    20428 1
   21327    20427    20488 1
   21328    20427    20489 1
   21329    20428    20429 1
   21330    20428    20490 1
   21331    20428    20491 1
   21332    20429    20430 1
   21333    20429    20492 1
   21334    20429    20493 1
   21335    20430    20494 1
   21336    20430    20495 1
   21337    20430    20496 1
   21338    20497    20498 1
   21339    20497    20504 1
   21340    20497    20536 1
   21341    20498    20499 1
   21342    20498    20502 1
   21343    20499    20500 1
   21344    20499    20503 1
   21345    20500    20501 1
   21346    20501    20502 1
   21347    20501    20512 1
   21348    20502    20508 1
   21349    20503    20504 1
   21350    20503    20507 1
   21351    20504    20505 1
   21352    20505    20506 1
   21353    20505    20509 1
   21354    20506    20507 1
   21355    20510    20511 1
   21356    20510    20518 1
   21357    20511    20512 1
   21358    20511    20519 1
   21359    20512    20513 1
   21360    20513    20514 1
   21361    20513    20517 1
   21362    20514    20515 1
   21363    20515    20516 1
   21364    20516    20517 1
   21365    20517    20518 1
   21366    20518    20628 1
   21367    20520    20521 1
   21368    20520    20553 1
   21369    20520    20554 1
   21370    20520    20555 1
   21371    20521    20522 1
   21372    20521    20556 1
   21373    20521    20557 1
   21374    20522    20523 1
   21375    20522    20558 1
   21376    20522    20559 1
   21377    20523    20524 1
   21378    20523    20560 1
   21379    20523    20561 1
   21380    20524    20525 1
   21381    20524    20562 1
   21382    20524    20563 1
   21383    20525    20526 1
   21384    20525    20564 1
   21385    20525    20565 1
   21386    20526    20527 1
   21387    20526    20566 1
   21388    20526    20567 1
   21389    20527    20528 1
   21390    20527    20568 1
   21391    20527    20569 1
   21392    20528    20529 1
   21393    20528    20535 1
   21394    20528    20570 1
   21395    20529    20530 1
   21396    20529    20571 1
   21397    20529    20572 1
   21398    20530    20531 1
   21399    20530    20573 1
   21400    20530    20574 1
   21401    20531    20532 1
   21402    20531    20575 1
   21403    20531    20576 1
   21404    20532    20533 1
   21405    20532    20577 1
   21406    20532    20578 1
   21407    20533    20534 1
   21408    20533    20579 1
   21409    20533    20580 1
   21410    20534    20581 1
   21411    20534    20582 1
   21412    20534    20583 1
   21413    20535    20536 1
   21414    20535    20584 1
   21415    20535    20585 1
   21416    20536    20537 1
   21417    20537    20538 1
   21418    20537    20586 1
   21419    20537    20587 1
   21420    20538    20539 1
   21421    20538    20545 1
   21422    20538    20588 1
   21423    20539    20540 1
   21424    20539    20589 1
   21425    20539    20590 1
   21426    20540    20541 1
   21427    20540    20591 1
   21428    20540    20592 1
   21429    20541    20542 1
   21430    20541    20593 1
   21431    20541    20594 1
   21432    20542    20543 1
   21433    20542    20595 1
   21434    20542    20596 1
   21435    20543    20544 1
   21436    20543    20597 1
   21437    20543    20598 1
   21438    20544    20599 1
   21439    20544    20600 1
   21440    20544    20601 1
   21441    20545    20546 1
   21442    20545    20602 1
   21443    20545    20603 1
   21444    20546    20547 1
   21445    20546    20604 1
   21446    20546    20605 1
   21447    20547    20548 1
   21448    20547    20606 1
   21449    20547    20607 1
   21450    20548    20549 1
   21451    20548    20608 1
   21452    20548    20609 1
   21453    20549    20550 1
   21454    20549    20610 1
   21455    20549    20611 1
   21456    20550    20551 1
   21457    20550    20612 1
   21458    20550    20613 1
   21459    20551    20552 1
   21460    20551    20614 1
   21461    20551    20615 1
   21462    20552    20616 1
   21463    20552    20617 1
   21464    20552    20618 1
   21465    20619    20620 1
   21466    20619    20626 1
   21467    20619    20658 1
   21468    20620    20621 1
   21469    20620    20624 1
   21470    20621    20622 1
   21471    20621    20625 1
   21472    20622    20623 1
   21473    20623    20624 1
   21474    20623    20634 1
   21475    20624    20630 1
   21476    20625    20626 1
   21477    20625    20629 1
   21478    20626    20627 1
   21479    20627    20628 1
   21480    20627    20631 1
   21481    20628    20629 1
   21482    20632    20633 1
   21483    20632    20640 1
   21484    20633    20634 1
   21485    20633    20641 1
   21486    20634    20635 1
   21487    20635    20636 1
   21488    20635    20639 1
   21489    20636    20637 1
   21490    20637    20638 1
   21491    20638    20639 1
   21492    20639    20640 1
   21493    20640    20750 1
   21494    20642    20643 1
   21495    20642    20675 1
   21496    20642    20676 1
   21497    20642    20677 1
   21498    20643    20644 1
   21499    20643    20678 1
   21500    20643    20679 1
   21501    20644    20645 1
   21502    20644    20680 1
   21503    20644    20681 1
   21504    20645    20646 1
   21505    20645    20682 1
   21506    20645    20683 1
   21507    20646    20647 1
   21508    20646    20684 1
   21509    20646    20685 1
   21510    20647    20648 1
   21511    20647    20686 1
   21512    20647    20687 1
   21513    20648    20649 1
   21514    20648    20688 1
   21515    20648    20689 1
   21516    20649    20650 1
   21517    20649    20690 1
   21518    20649    20691 1
   21519    20650    20651 1
   21520    20650    20657 1
   21521    20650    20692 1
   21522    20651    20652 1
   21523    20651    20693 1
   21524    20651    20694 1
   21525    20652    20653 1
   21526    20652    20695 1
   21527    20652    20696 1
   21528    20653    20654 1
   21529    20653    20697 1
   21530    20653    20698 1
   21531    20654    20655 1
   21532    20654    20699 1
   21533    20654    20700 1
   21534    20655    20656 1
   21535    20655    20701 1
   21536    20655    20702 1
   21537    20656    20703 1
   21538    20656    20704 1
   21539    20656    20705 1
   21540    20657    20658 1
   21541    20657    20706 1
   21542    20657    20707 1
   21543    20658    20659 1
   21544    20659    20660 1
   21545    20659    20708 1
   21546    20659    20709 1
   21547    20660    20661 1
   21548    20660    20667 1
   21549    20660    20710 1
   21550    20661    20662 1
   21551    20661    20711 1
   21552    20661    20712 1
   21553    20662    20663 1
   21554    20662    20713 1
   21555    20662    20714 1
   21556    20663    20664 1
   21557    20663    20715 1
   21558    20663    20716 1
   21559    20664    20665 1
   21560    20664    20717 1
   21561    20664    20718 1
   21562    20665    20666 1
   21563    20665    20719 1
   21564    20665    20720 1
   21565    20666    20721 1
   21566    20666    20722 1
   21567    20666    20723 1
   21568    20667    20668 1
   21569    20667    20724 1
   21570    20667    20725 1
   21571    20668    20669 1
   21572    20668    20726 1
   21573    20668    20727 1
   21574    20669    20670 1
   21575    20669    20728 1
   21576    20669    20729 1
   21577    20670    20671 1
   21578    20670    20730 1
   21579    20670    20731 1
   21580    20671    20672 1
   21581    20671    20732 1
   21582    20671    20733 1
   21583    20672    20673 1
   21584    20672    20734 1
   21585    20672    20735 1
   21586    20673    20674 1
   21587    20673    20736 1
   21588    20673    20737 1
   21589    20674    20738 1
   21590    20674    20739 1
   21591    20674    20740 1
   21592    20741    20742 1
   21593    20741    20748 1
   21594    20741    20780 1
   21595    20742    20743 1
   21596    20742    20746 1
   21597    20743    20744 1
   21598    20743    20747 1
   21599    20744    20745 1
   21600    20745    20746 1
   21601    20745    20756 1
   21602    20746    20752 1
   21603    20747    20748 1
   21604    20747    20751 1
   21605    20748    20749 1
   21606    20749    20750 1
   21607    20749    20753 1
   21608    20750    20751 1
   21609    20754    20755 1
   21610    20754    20762 1
   21611    20755    20756 1
   21612    20755    20763 1
   21613    20756    20757 1
   21614    20757    20758 1
   21615    20757    20761 1
   21616    20758    20759 1
   21617    20759    20760 1
   21618    20760    20761 1
   21619    20761    20762 1
   21620    20762    20872 1
   21621    20764    20765 1
   21622    20764    20797 1
   21623    20764    20798 1
   21624    20764    20799 1
   21625    20765    20766 1
   21626    20765    20800 1
   21627    20765    20801 1
   21628    20766    20767 1
   21629    20766    20802 1
   21630    20766    20803 1
   21631    20767    20768 1
   21632    20767    20804 1
   21633    20767    20805 1
   21634    20768    20769 1
   21635    20768    20806 1
   21636    20768    20807 1
   21637    20769    20770 1
   21638    20769    20808 1
   21639    20769    20809 1
   21640    20770    20771 1
   21641    20770    20810 1
   21642    20770    20811 1
   21643    20771    20772 1
   21644    20771    20812 1
   21645    20771    20813 1
   21646    20772    20773 1
   21647    20772    20779 1
   21648    20772    20814 1
   21649    20773    20774 1
   21650    20773    20815 1
   21651    20773    20816 1
   21652    20774    20775 1
   21653    20774    20817 1
   21654    20774    20818 1
   21655    20775    20776 1
   21656    20775    20819 1
   21657    20775    20820 1
   21658    20776    20777 1
   21659    20776    20821 1
   21660    20776    20822 1
   21661    20777    20778 1
   21662    20777    20823 1
   21663    20777    20824 1
   21664    20778    20825 1
   21665    20778    20826 1
   21666    20778    20827 1
   21667    20779    20780 1
   21668    20779    20828 1
   21669    20779    20829 1
   21670    20780    20781 1
   21671    20781    20782 1
   21672    20781    20830 1
   21673    20781    20831 1
   21674    20782    20783 1
   21675    20782    20789 1
   21676    20782    20832 1
   21677    20783    20784 1
   21678    20783    20833 1
   21679    20783    20834 1
   21680    20784    20785 1
   21681    20784    20835 1
   21682    20784    20836 1
   21683    20785    20786 1
   21684    20785    20837 1
   21685    20785    20838 1
   21686    20786    20787 1
   21687    20786    20839 1
   21688    20786    20840 1
   21689    20787    20788 1
   21690    20787    20841 1
   21691    20787    20842 1
   21692    20788    20843 1
   21693    20788    20844 1
   21694    20788    20845 1
   21695    20789    20790 1
   21696    20789    20846 1
   21697    20789    20847 1
   21698    20790    20791 1
   21699    20790    20848 1
   21700    20790    20849 1
   21701    20791    20792 1
   21702    20791    20850 1
   21703    20791    20851 1
   21704    20792    20793 1
   21705    20792    20852 1
   21706    20792    20853 1
   21707    20793    20794 1
   21708    20793    20854 1
   21709    20793    20855 1
   21710    20794    20795 1
   21711    20794    20856 1
   21712    20794    20857 1
   21713    20795    20796 1
   21714    20795    20858 1
   21715    20795    20859 1
   21716    20796    20860 1
   21717    20796    20861 1
   21718    20796    20862 1
   21719    20863    20864 1
   21720    20863    20870 1
   21721    20863    20902 1
   21722    20864    20865 1
   21723    20864    20868 1
   21724    20865    20866 1
   21725    20865    20869 1
   21726    20866    20867 1
   21727    20867    20868 1
   21728    20867    20878 1
   21729    20868    20874 1
   21730    20869    20870 1
   21731    20869    20873 1
   21732    20870    20871 1
   21733    20871    20872 1
   21734    20871    20875 1
   21735    20872    20873 1
   21736    20876    20877 1
   21737    20876    20884 1
   21738    20877    20878 1
   21739    20877    20885 1
   21740    20878    20879 1
   21741    20879    20880 1
   21742    20879    20883 1
   21743    20880    20881 1
   21744    20881    20882 1
   21745    20882    20883 1
   21746    20883    20884 1
   21747    20884    20994 1
   21748    20886    20887 1
   21749    20886    20919 1
   21750    20886    20920 1
   21751    20886    20921 1
   21752    20887    20888 1
   21753    20887    20922 1
   21754    20887    20923 1
   21755    20888    20889 1
   21756    20888    20924 1
   21757    20888    20925 1
   21758    20889    20890 1
   21759    20889    20926 1
   21760    20889    20927 1
   21761    20890    20891 1
   21762    20890    20928 1
   21763    20890    20929 1
   21764    20891    20892 1
   21765    20891    20930 1
   21766    20891    20931 1
   21767    20892    20893 1
   21768    20892    20932 1
   21769    20892    20933 1
   21770    20893    20894 1
   21771    20893    20934 1
   21772    20893    20935 1
   21773    20894    20895 1
   21774    20894    20901 1
   21775    20894    20936 1
   21776    20895    20896 1
   21777    20895    20937 1
   21778    20895    20938 1
   21779    20896    20897 1
   21780    20896    20939 1
   21781    20896    20940 1
   21782    20897    20898 1
   21783    20897    20941 1
   21784    20897    20942 1
   21785    20898    20899 1
   21786    20898    20943 1
   21787    20898    20944 1
   21788    20899    20900 1
   21789    20899    20945 1
   21790    20899    20946 1
   21791    20900    20947 1
   21792    20900    20948 1
   21793    20900    20949 1
   21794    20901    20902 1
   21795    20901    20950 1
   21796    20901    20951 1
   21797    20902    20903 1
   21798    20903    20904 1
   21799    20903    20952 1
   21800    20903    20953 1
   21801    20904    20905 1
   21802    20904    20911 1
   21803    20904    20954 1
   21804    20905    20906 1
   21805    20905    20955 1
   21806    20905    20956 1
   21807    20906    20907 1
   21808    20906    20957 1
   21809    20906    20958 1
   21810    20907    20908 1
   21811    20907    20959 1
   21812    20907    20960 1
   21813    20908    20909 1
   21814    20908    20961 1
   21815    20908    20962 1
   21816    20909    20910 1
   21817    20909    20963 1
   21818    20909    20964 1
   21819    20910    20965 1
   21820    20910    20966 1
   21821    20910    20967 1
   21822    20911    20912 1
   21823    20911    20968 1
   21824    20911    20969 1
   21825    20912    20913 1
   21826    20912    20970 1
   21827    20912    20971 1
   21828    20913    20914 1
   21829    20913    20972 1
   21830    20913    20973 1
   21831    20914    20915 1
   21832    20914    20974 1
   21833    20914    20975 1
   21834    20915    20916 1
   21835    20915    20976 1
   21836    20915    20977 1
   21837    20916    20917 1
   21838    20916    20978 1
   21839    20916    20979 1
   21840    20917    20918 1
   21841    20917    20980 1
   21842    20917    20981 1
   21843    20918    20982 1
   21844    20918    20983 1
   21845    20918    20984 1
   21846    20985    20986 1
   21847    20985    20992 1
   21848    20985    21024 1
   21849    20986    20987 1
   21850    20986    20990 1
   21851    20987    20988 1
   21852    20987    20991 1
   21853    20988    20989 1
   21854    20989    20990 1
   21855    20989    21000 1
   21856    20990    20996 1
   21857    20991    20992 1
   21858    20991    20995 1
   21859    20992    20993 1
   21860    20993    20994 1
   21861    20993    20997 1
   21862    20994    20995 1
   21863    20998    20999 1
   21864    20998    21006 1
   21865    20999    21000 1
   21866    20999    21007 1
   21867    21000    21001 1
   21868    21001    21002 1
   21869    21001    21005 1
   21870    21002    21003 1
   21871    21003    21004 1
   21872    21004    21005 1
   21873    21005    21006 1
   21874    21006    21116 1
   21875    21008    21009 1
   21876    21008    21041 1
   21877    21008    21042 1
   21878    21008    21043 1
   21879    21009    21010 1
   21880    21009    21044 1
   21881    21009    21045 1
   21882    21010    21011 1
   21883    21010    21046 1
   21884    21010    21047 1
   21885    21011    21012 1
   21886    21011    21048 1
   21887    21011    21049 1
   21888    21012    21013 1
   21889    21012    21050 1
   21890    21012    21051 1
   21891    21013    21014 1
   21892    21013    21052 1
   21893    21013    21053 1
   21894    21014    21015 1
   21895    21014    21054 1
   21896    21014    21055 1
   21897    21015    21016 1
   21898    21015    21056 1
   21899    21015    21057 1
   21900    21016    21017 1
   21901    21016    21023 1
   21902    21016    21058 1
   21903    21017    21018 1
   21904    21017    21059 1
   21905    21017    21060 1
   21906    21018    21019 1
   21907    21018    21061 1
   21908    21018    21062 1
   21909    21019    21020 1
   21910    21019    21063 1
   21911    21019    21064 1
   21912    21020    21021 1
   21913    21020    21065 1
   21914    21020    21066 1
   21915    21021    21022 1
   21916    21021    21067 1
   21917    21021    21068 1
   21918    21022    21069 1
   21919    21022    21070 1
   21920    21022    21071 1
   21921    21023    21024 1
   21922    21023    21072 1
   21923    21023    21073 1
   21924    21024    21025 1
   21925    21025    21026 1
   21926    21025    21074 1
   21927    21025    21075 1
   21928    21026    21027 1
   21929    21026    21033 1
   21930    21026    21076 1
   21931    21027    21028 1
   21932    21027    21077 1
   21933    21027    21078 1
   21934    21028    21029 1
   21935    21028    21079 1
   21936    21028    21080 1
   21937    21029    21030 1
   21938    21029    21081 1
   21939    21029    21082 1
   21940    21030    21031 1
   21941    21030    21083 1
   21942    21030    21084 1
   21943    21031    21032 1
   21944    21031    21085 1
   21945    21031    21086 1
   21946    21032    21087 1
   21947    21032    21088 1
   21948    21032    21089 1
   21949    21033    21034 1
   21950    21033    21090 1
   21951    21033    21091 1
   21952    21034    21035 1
   21953    21034    21092 1
   21954    21034    21093 1
   21955    21035    21036 1
   21956    21035    21094 1
   21957    21035    21095 1
   21958    21036    21037 1
   21959    21036    21096 1
   21960    21036    21097 1
   21961    21037    21038 1
   21962    21037    21098 1
   21963    21037    21099 1
   21964    21038    21039 1
   21965    21038    21100 1
   21966    21038    21101 1
   21967    21039    21040 1
   21968    21039    21102 1
   21969    21039    21103 1
   21970    21040    21104 1
   21971    21040    21105 1
   21972    21040    21106 1
   21973    21107    21108 1
   21974    21107    21114 1
   21975    21107    21146 1
   21976    21108    21109 1
   21977    21108    21112 1
   21978    21109    21110 1
   21979    21109    21113 1
   21980    21110    21111 1
   21981    21111    21112 1
   21982    21111    21122 1
   21983    21112    21118 1
   21984    21113    21114 1
   21985    21113    21117 1
   21986    21114    21115 1
   21987    21115    21116 1
   21988    21115    21119 1
   21989    21116    21117 1
   21990    21120    21121 1
   21991    21120    21128 1
   21992    21121    21122 1
   21993    21121    21129 1
   21994    21122    21123 1
   21995    21123    21124 1
   21996    21123    21127 1
   21997    21124    21125 1
   21998    21125    21126 1
   21999    21126    21127 1
   22000    21127    21128 1
   22001    21128    21238 1
   22002    21130    21131 1
   22003    21130    21163 1
   22004    21130    21164 1
   22005    21130    21165 1
   22006    21131    21132 1
   22007    21131    21166 1
   22008    21131    21167 1
   22009    21132    21133 1
   22010    21132    21168 1
   22011    21132    21169 1
   22012    21133    21134 1
   22013    21133    21170 1
   22014    21133    21171 1
   22015    21134    21135 1
   22016    21134    21172 1
   22017    21134    21173 1
   22018    21135    21136 1
   22019    21135    21174 1
   22020    21135    21175 1
   22021    21136    21137 1
   22022    21136    21176 1
   22023    21136    21177 1
   22024    21137    21138 1
   22025    21137    21178 1
   22026    21137    21179 1
   22027    21138    21139 1
   22028    21138    21145 1
   22029    21138    21180 1
   22030    21139    21140 1
   22031    21139    21181 1
   22032    21139    21182 1
   22033    21140    21141 1
   22034    21140    21183 1
   22035    21140    21184 1
   22036    21141    21142 1
   22037    21141    21185 1
   22038    21141    21186 1
   22039    21142    21143 1
   22040    21142    21187 1
   22041    21142    21188 1
   22042    21143    21144 1
   22043    21143    21189 1
   22044    21143    21190 1
   22045    21144    21191 1
   22046    21144    21192 1
   22047    21144    21193 1
   22048    21145    21146 1
   22049    21145    21194 1
   22050    21145    21195 1
   22051    21146    21147 1
   22052    21147    21148 1
   22053    21147    21196 1
   22054    21147    21197 1
   22055    21148    21149 1
   22056    21148    21155 1
   22057    21148    21198 1
   22058    21149    21150 1
   22059    21149    21199 1
   22060    21149    21200 1
   22061    21150    21151 1
   22062    21150    21201 1
   22063    21150    21202 1
   22064    21151    21152 1
   22065    21151    21203 1
   22066    21151    21204 1
   22067    21152    21153 1
   22068    21152    21205 1
   22069    21152    21206 1
   22070    21153    21154 1
   22071    21153    21207 1
   22072    21153    21208 1
   22073    21154    21209 1
   22074    21154    21210 1
   22075    21154    21211 1
   22076    21155    21156 1
   22077    21155    21212 1
   22078    21155    21213 1
   22079    21156    21157 1
   22080    21156    21214 1
   22081    21156    21215 1
   22082    21157    21158 1
   22083    21157    21216 1
   22084    21157    21217 1
   22085    21158    21159 1
   22086    21158    21218 1
   22087    21158    21219 1
   22088    21159    21160 1
   22089    21159    21220 1
   22090    21159    21221 1
   22091    21160    21161 1
   22092    21160    21222 1
   22093    21160    21223 1
   22094    21161    21162 1
   22095    21161    21224 1
   22096    21161    21225 1
   22097    21162    21226 1
   22098    21162    21227 1
   22099    21162    21228 1
   22100    21229    21230 1
   22101    21229    21236 1
   22102    21229    21268 1
   22103    21230    21231 1
   22104    21230    21234 1
   22105    21231    21232 1
   22106    21231    21235 1
   22107    21232    21233 1
   22108    21233    21234 1
   22109    21233    21244 1
   22110    21234    21240 1
   22111    21235    21236 1
   22112    21235    21239 1
   22113    21236    21237 1
   22114    21237    21238 1
   22115    21237    21241 1
   22116    21238    21239 1
   22117    21242    21243 1
   22118    21242    21250 1
   22119    21243    21244 1
   22120    21243    21251 1
   22121    21244    21245 1
   22122    21245    21246 1
   22123    21245    21249 1
   22124    21246    21247 1
   22125    21247    21248 1
   22126    21248    21249 1
   22127    21249    21250 1
   22128    21250    21360 1
   22129    21252    21253 1
   22130    21252    21285 1
   22131    21252    21286 1
   22132    21252    21287 1
   22133    21253    21254 1
   22134    21253    21288 1
   22135    21253    21289 1
   22136    21254    21255 1
   22137    21254    21290 1
   22138    21254    21291 1
   22139    21255    21256 1
   22140    21255    21292 1
   22141    21255    21293 1
   22142    21256    21257 1
   22143    21256    21294 1
   22144    21256    21295 1
   22145    21257    21258 1
   22146    21257    21296 1
   22147    21257    21297 1
   22148    21258    21259 1
   22149    21258    21298 1
   22150    21258    21299 1
   22151    21259    21260 1
   22152    21259    21300 1
   22153    21259    21301 1
   22154    21260    21261 1
   22155    21260    21267 1
   22156    21260    21302 1
   22157    21261    21262 1
   22158    21261    21303 1
   22159    21261    21304 1
   22160    21262    21263 1
   22161    21262    21305 1
   22162    21262    21306 1
   22163    21263    21264 1
   22164    21263    21307 1
   22165    21263    21308 1
   22166    21264    21265 1
   22167    21264    21309 1
   22168    21264    21310 1
   22169    21265    21266 1
   22170    21265    21311 1
   22171    21265    21312 1
   22172    21266    21313 1
   22173    21266    21314 1
   22174    21266    21315 1
   22175    21267    21268 1
   22176    21267    21316 1
   22177    21267    21317 1
   22178    21268    21269 1
   22179    21269    21270 1
   22180    21269    21318 1
   22181    21269    21319 1
   22182    21270    21271 1
   22183    21270    21277 1
   22184    21270    21320 1
   22185    21271    21272 1
   22186    21271    21321 1
   22187    21271    21322 1
   22188    21272    21273 1
   22189    21272    21323 1
   22190    21272    21324 1
   22191    21273    21274 1
   22192    21273    21325 1
   22193    21273    21326 1
   22194    21274    21275 1
   22195    21274    21327 1
   22196    21274    21328 1
   22197    21275    21276 1
   22198    21275    21329 1
   22199    21275    21330 1
   22200    21276    21331 1
   22201    21276    21332 1
   22202    21276    21333 1
   22203    21277    21278 1
   22204    21277    21334 1
   22205    21277    21335 1
   22206    21278    21279 1
   22207    21278    21336 1
   22208    21278    21337 1
   22209    21279    21280 1
   22210    21279    21338 1
   22211    21279    21339 1
   22212    21280    21281 1
   22213    21280    21340 1
   22214    21280    21341 1
   22215    21281    21282 1
   22216    21281    21342 1
   22217    21281    21343 1
   22218    21282    21283 1
   22219    21282    21344 1
   22220    21282    21345 1
   22221    21283    21284 1
   22222    21283    21346 1
   22223    21283    21347 1
   22224    21284    21348 1
   22225    21284    21349 1
   22226    21284    21350 1
   22227    21351    21352 1
   22228    21351    21358 1
   22229    21351    21390 1
   22230    21352    21353 1
   22231    21352    21356 1
   22232    21353    21354 1
   22233    21353    21357 1
   22234    21354    21355 1
   22235    21355    21356 1
   22236    21355    21366 1
   22237    21356    21362 1
   22238    21357    21358 1
   22239    21357    21361 1
   22240    21358    21359 1
   22241    21359    21360 1
   22242    21359    21363 1
   22243    21360    21361 1
   22244    21364    21365 1
   22245    21364    21372 1
   22246    21365    21366 1
   22247    21365    21373 1
   22248    21366    21367 1
   22249    21367    21368 1
   22250    21367    21371 1
   22251    21368    21369 1
   22252    21369    21370 1
   22253    21370    21371 1
   22254    21371    21372 1
   22255    21372    21482 1
   22256    21374    21375 1
   22257    21374    21407 1
   22258    21374    21408 1
   22259    21374    21409 1
   22260    21375    21376 1
   22261    21375    21410 1
   22262    21375    21411 1
   22263    21376    21377 1
   22264    21376    21412 1
   22265    21376    21413 1
   22266    21377    21378 1
   22267    21377    21414 1
   22268    21377    21415 1
   22269    21378    21379 1
   22270    21378    21416 1
   22271    21378    21417 1
   22272    21379    21380 1
   22273    21379    21418 1
   22274    21379    21419 1
   22275    21380    21381 1
   22276    21380    21420 1
   22277    21380    21421 1
   22278    21381    21382 1
   22279    21381    21422 1
   22280    21381    21423 1
   22281    21382    21383 1
   22282    21382    21389 1
   22283    21382    21424 1
   22284    21383    21384 1
   22285    21383    21425 1
   22286    21383    21426 1
   22287    21384    21385 1
   22288    21384    21427 1
   22289    21384    21428 1
   22290    21385    21386 1
   22291    21385    21429 1
   22292    21385    21430 1
   22293    21386    21387 1
   22294    21386    21431 1
   22295    21386    21432 1
   22296    21387    21388 1
   22297    21387    21433 1
   22298    21387    21434 1
   22299    21388    21435 1
   22300    21388    21436 1
   22301    21388    21437 1
   22302    21389    21390 1
   22303    21389    21438 1
   22304    21389    21439 1
   22305    21390    21391 1
   22306    21391    21392 1
   22307    21391    21440 1
   22308    21391    21441 1
   22309    21392    21393 1
   22310    21392    21399 1
   22311    21392    21442 1
   22312    21393    21394 1
   22313    21393    21443 1
   22314    21393    21444 1
   22315    21394    21395 1
   22316    21394    21445 1
   22317    21394    21446 1
   22318    21395    21396 1
   22319    21395    21447 1
   22320    21395    21448 1
   22321    21396    21397 1
   22322    21396    21449 1
   22323    21396    21450 1
   22324    21397    21398 1
   22325    21397    21451 1
   22326    21397    21452 1
   22327    21398    21453 1
   22328    21398    21454 1
   22329    21398    21455 1
   22330    21399    21400 1
   22331    21399    21456 1
   22332    21399    21457 1
   22333    21400    21401 1
   22334    21400    21458 1
   22335    21400    21459 1
   22336    21401    21402 1
   22337    21401    21460 1
   22338    21401    21461 1
   22339    21402    21403 1
   22340    21402    21462 1
   22341    21402    21463 1
   22342    21403    21404 1
   22343    21403    21464 1
   22344    21403    21465 1
   22345    21404    21405 1
   22346    21404    21466 1
   22347    21404    21467 1
   22348    21405    21406 1
   22349    21405    21468 1
   22350    21405    21469 1
   22351    21406    21470 1
   22352    21406    21471 1
   22353    21406    21472 1
   22354    21473    21474 1
   22355    21473    21480 1
   22356    21473    21512 1
   22357    21474    21475 1
   22358    21474    21478 1
   22359    21475    21476 1
   22360    21475    21479 1
   22361    21476    21477 1
   22362    21477    21478 1
   22363    21477    21488 1
   22364    21478    21484 1
   22365    21479    21480 1
   22366    21479    21483 1
   22367    21480    21481 1
   22368    21481    21482 1
   22369    21481    21485 1
   22370    21482    21483 1
   22371    21486    21487 1
   22372    21486    21494 1
   22373    21487    21488 1
   22374    21487    21495 1
   22375    21488    21489 1
   22376    21489    21490 1
   22377    21489    21493 1
   22378    21490    21491 1
   22379    21491    21492 1
   22380    21492    21493 1
   22381    21493    21494 1
   22382    21494    21604 1
   22383    21496    21497 1
   22384    21496    21529 1
   22385    21496    21530 1
   22386    21496    21531 1
   22387    21497    21498 1
   22388    21497    21532 1
   22389    21497    21533 1
   22390    21498    21499 1
   22391    21498    21534 1
   22392    21498    21535 1
   22393    21499    21500 1
   22394    21499    21536 1
   22395    21499    21537 1
   22396    21500    21501 1
   22397    21500    21538 1
   22398    21500    21539 1
   22399    21501    21502 1
   22400    21501    21540 1
   22401    21501    21541 1
   22402    21502    21503 1
   22403    21502    21542 1
   22404    21502    21543 1
   22405    21503    21504 1
   22406    21503    21544 1
   22407    21503    21545 1
   22408    21504    21505 1
   22409    21504    21511 1
   22410    21504    21546 1
   22411    21505    21506 1
   22412    21505    21547 1
   22413    21505    21548 1
   22414    21506    21507 1
   22415    21506    21549 1
   22416    21506    21550 1
   22417    21507    21508 1
   22418    21507    21551 1
   22419    21507    21552 1
   22420    21508    21509 1
   22421    21508    21553 1
   22422    21508    21554 1
   22423    21509    21510 1
   22424    21509    21555 1
   22425    21509    21556 1
   22426    21510    21557 1
   22427    21510    21558 1
   22428    21510    21559 1
   22429    21511    21512 1
   22430    21511    21560 1
   22431    21511    21561 1
   22432    21512    21513 1
   22433    21513    21514 1
   22434    21513    21562 1
   22435    21513    21563 1
   22436    21514    21515 1
   22437    21514    21521 1
   22438    21514    21564 1
   22439    21515    21516 1
   22440    21515    21565 1
   22441    21515    21566 1
   22442    21516    21517 1
   22443    21516    21567 1
   22444    21516    21568 1
   22445    21517    21518 1
   22446    21517    21569 1
   22447    21517    21570 1
   22448    21518    21519 1
   22449    21518    21571 1
   22450    21518    21572 1
   22451    21519    21520 1
   22452    21519    21573 1
   22453    21519    21574 1
   22454    21520    21575 1
   22455    21520    21576 1
   22456    21520    21577 1
   22457    21521    21522 1
   22458    21521    21578 1
   22459    21521    21579 1
   22460    21522    21523 1
   22461    21522    21580 1
   22462    21522    21581 1
   22463    21523    21524 1
   22464    21523    21582 1
   22465    21523    21583 1
   22466    21524    21525 1
   22467    21524    21584 1
   22468    21524    21585 1
   22469    21525    21526 1
   22470    21525    21586 1
   22471    21525    21587 1
   22472    21526    21527 1
   22473    21526    21588 1
   22474    21526    21589 1
   22475    21527    21528 1
   22476    21527    21590 1
   22477    21527    21591 1
   22478    21528    21592 1
   22479    21528    21593 1
   22480    21528    21594 1
   22481    21595    21596 1
   22482    21595    21602 1
   22483    21595    21634 1
   22484    21596    21597 1
   22485    21596    21600 1
   22486    21597    21598 1
   22487    21597    21601 1
   22488    21598    21599 1
   22489    21599    21600 1
   22490    21599    21610 1
   22491    21600    21606 1
   22492    21601    21602 1
   22493    21601    21605 1
   22494    21602    21603 1
   22495    21603    21604 1
   22496    21603    21607 1
   22497    21604    21605 1
   22498    21608    21609 1
   22499    21608    21616 1
   22500    21609    21610 1
   22501    21609    21617 1
   22502    21610    21611 1
   22503    21611    21612 1
   22504    21611    21615 1
   22505    21612    21613 1
   22506    21613    21614 1
   22507    21614    21615 1
   22508    21615    21616 1
   22509    21616    21726 1
   22510    21618    21619 1
   22511    21618    21651 1
   22512    21618    21652 1
   22513    21618    21653 1
   22514    21619    21620 1
   22515    21619    21654 1
   22516    21619    21655 1
   22517    21620    21621 1
   22518    21620    21656 1
   22519    21620    21657 1
   22520    21621    21622 1
   22521    21621    21658 1
   22522    21621    21659 1
   22523    21622    21623 1
   22524    21622    21660 1
   22525    21622    21661 1
   22526    21623    21624 1
   22527    21623    21662 1
   22528    21623    21663 1
   22529    21624    21625 1
   22530    21624    21664 1
   22531    21624    21665 1
   22532    21625    21626 1
   22533    21625    21666 1
   22534    21625    21667 1
   22535    21626    21627 1
   22536    21626    21633 1
   22537    21626    21668 1
   22538    21627    21628 1
   22539    21627    21669 1
   22540    21627    21670 1
   22541    21628    21629 1
   22542    21628    21671 1
   22543    21628    21672 1
   22544    21629    21630 1
   22545    21629    21673 1
   22546    21629    21674 1
   22547    21630    21631 1
   22548    21630    21675 1
   22549    21630    21676 1
   22550    21631    21632 1
   22551    21631    21677 1
   22552    21631    21678 1
   22553    21632    21679 1
   22554    21632    21680 1
   22555    21632    21681 1
   22556    21633    21634 1
   22557    21633    21682 1
   22558    21633    21683 1
   22559    21634    21635 1
   22560    21635    21636 1
   22561    21635    21684 1
   22562    21635    21685 1
   22563    21636    21637 1
   22564    21636    21643 1
   22565    21636    21686 1
   22566    21637    21638 1
   22567    21637    21687 1
   22568    21637    21688 1
   22569    21638    21639 1
   22570    21638    21689 1
   22571    21638    21690 1
   22572    21639    21640 1
   22573    21639    21691 1
   22574    21639    21692 1
   22575    21640    21641 1
   22576    21640    21693 1
   22577    21640    21694 1
   22578    21641    21642 1
   22579    21641    21695 1
   22580    21641    21696 1
   22581    21642    21697 1
   22582    21642    21698 1
   22583    21642    21699 1
   22584    21643    21644 1
   22585    21643    21700 1
   22586    21643    21701 1
   22587    21644    21645 1
   22588    21644    21702 1
   22589    21644    21703 1
   22590    21645    21646 1
   22591    21645    21704 1
   22592    21645    21705 1
   22593    21646    21647 1
   22594    21646    21706 1
   22595    21646    21707 1
   22596    21647    21648 1
   22597    21647    21708 1
   22598    21647    21709 1
   22599    21648    21649 1
   22600    21648    21710 1
   22601    21648    21711 1
   22602    21649    21650 1
   22603    21649    21712 1
   22604    21649    21713 1
   22605    21650    21714 1
   22606    21650    21715 1
   22607    21650    21716 1
   22608    21717    21718 1
   22609    21717    21724 1
   22610    21717    21756 1
   22611    21718    21719 1
   22612    21718    21722 1
   22613    21719    21720 1
   22614    21719    21723 1
   22615    21720    21721 1
   22616    21721    21722 1
   22617    21721    21732 1
   22618    21722    21728 1
   22619    21723    21724 1
   22620    21723    21727 1
   22621    21724    21725 1
   22622    21725    21726 1
   22623    21725    21729 1
   22624    21726    21727 1
   22625    21730    21731 1
   22626    21730    21738 1
   22627    21731    21732 1
   22628    21731    21739 1
   22629    21732    21733 1
   22630    21733    21734 1
   22631    21733    21737 1
   22632    21734    21735 1
   22633    21735    21736 1
   22634    21736    21737 1
   22635    21737    21738 1
   22636    21738    21848 1
   22637    21740    21741 1
   22638    21740    21773 1
   22639    21740    21774 1
   22640    21740    21775 1
   22641    21741    21742 1
   22642    21741    21776 1
   22643    21741    21777 1
   22644    21742    21743 1
   22645    21742    21778 1
   22646    21742    21779 1
   22647    21743    21744 1
   22648    21743    21780 1
   22649    21743    21781 1
   22650    21744    21745 1
   22651    21744    21782 1
   22652    21744    21783 1
   22653    21745    21746 1
   22654    21745    21784 1
   22655    21745    21785 1
   22656    21746    21747 1
   22657    21746    21786 1
   22658    21746    21787 1
   22659    21747    21748 1
   22660    21747    21788 1
   22661    21747    21789 1
   22662    21748    21749 1
   22663    21748    21755 1
   22664    21748    21790 1
   22665    21749    21750 1
   22666    21749    21791 1
   22667    21749    21792 1
   22668    21750    21751 1
   22669    21750    21793 1
   22670    21750    21794 1
   22671    21751    21752 1
   22672    21751    21795 1
   22673    21751    21796 1
   22674    21752    21753 1
   22675    21752    21797 1
   22676    21752    21798 1
   22677    21753    21754 1
   22678    21753    21799 1
   22679    21753    21800 1
   22680    21754    21801 1
   22681    21754    21802 1
   22682    21754    21803 1
   22683    21755    21756 1
   22684    21755    21804 1
   22685    21755    21805 1
   22686    21756    21757 1
   22687    21757    21758 1
   22688    21757    21806 1
   22689    21757    21807 1
   22690    21758    21759 1
   22691    21758    21765 1
   22692    21758    21808 1
   22693    21759    21760 1
   22694    21759    21809 1
   22695    21759    21810 1
   22696    21760    21761 1
   22697    21760    21811 1
   22698    21760    21812 1
   22699    21761    21762 1
   22700    21761    21813 1
   22701    21761    21814 1
   22702    21762    21763 1
   22703    21762    21815 1
   22704    21762    21816 1
   22705    21763    21764 1
   22706    21763    21817 1
   22707    21763    21818 1
   22708    21764    21819 1
   22709    21764    21820 1
   22710    21764    21821 1
   22711    21765    21766 1
   22712    21765    21822 1
   22713    21765    21823 1
   22714    21766    21767 1
   22715    21766    21824 1
   22716    21766    21825 1
   22717    21767    21768 1
   22718    21767    21826 1
   22719    21767    21827 1
   22720    21768    21769 1
   22721    21768    21828 1
   22722    21768    21829 1
   22723    21769    21770 1
   22724    21769    21830 1
   22725    21769    21831 1
   22726    21770    21771 1
   22727    21770    21832 1
   22728    21770    21833 1
   22729    21771    21772 1
   22730    21771    21834 1
   22731    21771    21835 1
   22732    21772    21836 1
   22733    21772    21837 1
   22734    21772    21838 1
   22735    21839    21840 1
   22736    21839    21846 1
   22737    21839    21878 1
   22738    21840    21841 1
   22739    21840    21844 1
   22740    21841    21842 1
   22741    21841    21845 1
   22742    21842    21843 1
   22743    21843    21844 1
   22744    21843    21854 1
   22745    21844    21850 1
   22746    21845    21846 1
   22747    21845    21849 1
   22748    21846    21847 1
   22749    21847    21848 1
   22750    21847    21851 1
   22751    21848    21849 1
   22752    21852    21853 1
   22753    21852    21860 1
   22754    21853    21854 1
   22755    21853    21861 1
   22756    21854    21855 1
   22757    21855    21856 1
   22758    21855    21859 1
   22759    21856    21857 1
   22760    21857    21858 1
   22761    21858    21859 1
   22762    21859    21860 1
   22763    21860    21970 1
   22764    21862    21863 1
   22765    21862    21895 1
   22766    21862    21896 1
   22767    21862    21897 1
   22768    21863    21864 1
   22769    21863    21898 1
   22770    21863    21899 1
   22771    21864    21865 1
   22772    21864    21900 1
   22773    21864    21901 1
   22774    21865    21866 1
   22775    21865    21902 1
   22776    21865    21903 1
   22777    21866    21867 1
   22778    21866    21904 1
   22779    21866    21905 1
   22780    21867    21868 1
   22781    21867    21906 1
   22782    21867    21907 1
   22783    21868    21869 1
   22784    21868    21908 1
   22785    21868    21909 1
   22786    21869    21870 1
   22787    21869    21910 1
   22788    21869    21911 1
   22789    21870    21871 1
   22790    21870    21877 1
   22791    21870    21912 1
   22792    21871    21872 1
   22793    21871    21913 1
   22794    21871    21914 1
   22795    21872    21873 1
   22796    21872    21915 1
   22797    21872    21916 1
   22798    21873    21874 1
   22799    21873    21917 1
   22800    21873    21918 1
   22801    21874    21875 1
   22802    21874    21919 1
   22803    21874    21920 1
   22804    21875    21876 1
   22805    21875    21921 1
   22806    21875    21922 1
   22807    21876    21923 1
   22808    21876    21924 1
   22809    21876    21925 1
   22810    21877    21878 1
   22811    21877    21926 1
   22812    21877    21927 1
   22813    21878    21879 1
   22814    21879    21880 1
   22815    21879    21928 1
   22816    21879    21929 1
   22817    21880    21881 1
   22818    21880    21887 1
   22819    21880    21930 1
   22820    21881    21882 1
   22821    21881    21931 1
   22822    21881    21932 1
   22823    21882    21883 1
   22824    21882    21933 1
   22825    21882    21934 1
   22826    21883    21884 1
   22827    21883    21935 1
   22828    21883    21936 1
   22829    21884    21885 1
   22830    21884    21937 1
   22831    21884    21938 1
   22832    21885    21886 1
   22833    21885    21939 1
   22834    21885    21940 1
   22835    21886    21941 1
   22836    21886    21942 1
   22837    21886    21943 1
   22838    21887    21888 1
   22839    21887    21944 1
   22840    21887    21945 1
   22841    21888    21889 1
   22842    21888    21946 1
   22843    21888    21947 1
   22844    21889    21890 1
   22845    21889    21948 1
   22846    21889    21949 1
   22847    21890    21891 1
   22848    21890    21950 1
   22849    21890    21951 1
   22850    21891    21892 1
   22851    21891    21952 1
   22852    21891    21953 1
   22853    21892    21893 1
   22854    21892    21954 1
   22855    21892    21955 1
   22856    21893    21894 1
   22857    21893    21956 1
   22858    21893    21957 1
   22859    21894    21958 1
   22860    21894    21959 1
   22861    21894    21960 1
   22862    21961    21962 1
   22863    21961    21968 1
   22864    21961    22000 1
   22865    21962    21963 1
   22866    21962    21966 1
   22867    21963    21964 1
   22868    21963    21967 1
   22869    21964    21965 1
   22870    21965    21966 1
   22871    21965    21976 1
   22872    21966    21972 1
   22873    21967    21968 1
   22874    21967    21971 1
   22875    21968    21969 1
   22876    21969    21970 1
   22877    21969    21973 1
   22878    21970    21971 1
   22879    21974    21975 1
   22880    21974    21982 1
   22881    21975    21976 1
   22882    21975    21983 1
   22883    21976    21977 1
   22884    21977    21978 1
   22885    21977    21981 1
   22886    21978    21979 1
   22887    21979    21980 1
   22888    21980    21981 1
   22889    21981    21982 1
   22890    21982    22092 1
   22891    21984    21985 1
   22892    21984    22017 1
   22893    21984    22018 1
   22894    21984    22019 1
   22895    21985    21986 1
   22896    21985    22020 1
   22897    21985    22021 1
   22898    21986    21987 1
   22899    21986    22022 1
   22900    21986    22023 1
   22901    21987    21988 1
   22902    21987    22024 1
   22903    21987    22025 1
   22904    21988    21989 1
   22905    21988    22026 1
   22906    21988    22027 1
   22907    21989    21990 1
   22908    21989    22028 1
   22909    21989    22029 1
   22910    21990    21991 1
   22911    21990    22030 1
   22912    21990    22031 1
   22913    21991    21992 1
   22914    21991    22032 1
   22915    21991    22033 1
   22916    21992    21993 1
   22917    21992    21999 1
   22918    21992    22034 1
   22919    21993    21994 1
   22920    21993    22035 1
   22921    21993    22036 1
   22922    21994    21995 1
   22923    21994    22037 1
   22924    21994    22038 1
   22925    21995    21996 1
   22926    21995    22039 1
   22927    21995    22040 1
   22928    21996    21997 1
   22929    21996    22041 1
   22930    21996    22042 1
   22931    21997    21998 1
   22932    21997    22043 1
   22933    21997    22044 1
   22934    21998    22045 1
   22935    21998    22046 1
   22936    21998    22047 1
   22937    21999    22000 1
   22938    21999    22048 1
   22939    21999    22049 1
   22940    22000    22001 1
   22941    22001    22002 1
   22942    22001    22050 1
   22943    22001    22051 1
   22944    22002    22003 1
   22945    22002    22009 1
   22946    22002    22052 1
   22947    22003    22004 1
   22948    22003    22053 1
   22949    22003    22054 1
   22950    22004    22005 1
   22951    22004    22055 1
   22952    22004    22056 1
   22953    22005    22006 1
   22954    22005    22057 1
   22955    22005    22058 1
   22956    22006    22007 1
   22957    22006    22059 1
   22958    22006    22060 1
   22959    22007    22008 1
   22960    22007    22061 1
   22961    22007    22062 1
   22962    22008    22063 1
   22963    22008    22064 1
   22964    22008    22065 1
   22965    22009    22010 1
   22966    22009    22066 1
   22967    22009    22067 1
   22968    22010    22011 1
   22969    22010    22068 1
   22970    22010    22069 1
   22971    22011    22012 1
   22972    22011    22070 1
   22973    22011    22071 1
   22974    22012    22013 1
   22975    22012    22072 1
   22976    22012    22073 1
   22977    22013    22014 1
   22978    22013    22074 1
   22979    22013    22075 1
   22980    22014    22015 1
   22981    22014    22076 1
   22982    22014    22077 1
   22983    22015    22016 1
   22984    22015    22078 1
   22985    22015    22079 1
   22986    22016    22080 1
   22987    22016    22081 1
   22988    22016    22082 1
   22989    22083    22084 1
   22990    22083    22090 1
   22991    22083    22122 1
   22992    22084    22085 1
   22993    22084    22088 1
   22994    22085    22086 1
   22995    22085    22089 1
   22996    22086    22087 1
   22997    22087    22088 1
   22998    22087    22098 1
   22999    22088    22094 1
   23000    22089    22090 1
   23001    22089    22093 1
   23002    22090    22091 1
   23003    22091    22092 1
   23004    22091    22095 1
   23005    22092    22093 1
   23006    22096    22097 1
   23007    22096    22104 1
   23008    22097    22098 1
   23009    22097    22105 1
   23010    22098    22099 1
   23011    22099    22100 1
   23012    22099    22103 1
   23013    22100    22101 1
   23014    22101    22102 1
   23015    22102    22103 1
   23016    22103    22104 1
   23017    22104    22214 1
   23018    22106    22107 1
   23019    22106    22139 1
   23020    22106    22140 1
   23021    22106    22141 1
   23022    22107    22108 1
   23023    22107    22142 1
   23024    22107    22143 1
   23025    22108    22109 1
   23026    22108    22144 1
   23027    22108    22145 1
   23028    22109    22110 1
   23029    22109    22146 1
   23030    22109    22147 1
   23031    22110    22111 1
   23032    22110    22148 1
   23033    22110    22149 1
   23034    22111    22112 1
   23035    22111    22150 1
   23036    22111    22151 1
   23037    22112    22113 1
   23038    22112    22152 1
   23039    22112    22153 1
   23040    22113    22114 1
   23041    22113    22154 1
   23042    22113    22155 1
   23043    22114    22115 1
   23044    22114    22121 1
   23045    22114    22156 1
   23046    22115    22116 1
   23047    22115    22157 1
   23048    22115    22158 1
   23049    22116    22117 1
   23050    22116    22159 1
   23051    22116    22160 1
   23052    22117    22118 1
   23053    22117    22161 1
   23054    22117    22162 1
   23055    22118    22119 1
   23056    22118    22163 1
   23057    22118    22164 1
   23058    22119    22120 1
   23059    22119    22165 1
   23060    22119    22166 1
   23061    22120    22167 1
   23062    22120    22168 1
   23063    22120    22169 1
   23064    22121    22122 1
   23065    22121    22170 1
   23066    22121    22171 1
   23067    22122    22123 1
   23068    22123    22124 1
   23069    22123    22172 1
   23070    22123    22173 1
   23071    22124    22125 1
   23072    22124    22131 1
   23073    22124    22174 1
   23074    22125    22126 1
   23075    22125    22175 1
   23076    22125    22176 1
   23077    22126    22127 1
   23078    22126    22177 1
   23079    22126    22178 1
   23080    22127    22128 1
   23081    22127    22179 1
   23082    22127    22180 1
   23083    22128    22129 1
   23084    22128    22181 1
   23085    22128    22182 1
   23086    22129    22130 1
   23087    22129    22183 1
   23088    22129    22184 1
   23089    22130    22185 1
   23090    22130    22186 1
   23091    22130    22187 1
   23092    22131    22132 1
   23093    22131    22188 1
   23094    22131    22189 1
   23095    22132    22133 1
   23096    22132    22190 1
   23097    22132    22191 1
   23098    22133    22134 1
   23099    22133    22192 1
   23100    22133    22193 1
   23101    22134    22135 1
   23102    22134    22194 1
   23103    22134    22195 1
   23104    22135    22136 1
   23105    22135    22196 1
   23106    22135    22197 1
   23107    22136    22137 1
   23108    22136    22198 1
   23109    22136    22199 1
   23110    22137    22138 1
   23111    22137    22200 1
   23112    22137    22201 1
   23113    22138    22202 1
   23114    22138    22203 1
   23115    22138    22204 1
   23116    22205    22206 1
   23117    22205    22212 1
   23118    22205    22244 1
   23119    22206    22207 1
   23120    22206    22210 1
   23121    22207    22208 1
   23122    22207    22211 1
   23123    22208    22209 1
   23124    22209    22210 1
   23125    22209    22220 1
   23126    22210    22216 1
   23127    22211    22212 1
   23128    22211    22215 1
   23129    22212    22213 1
   23130    22213    22214 1
   23131    22213    22217 1
   23132    22214    22215 1
   23133    22218    22219 1
   23134    22218    22226 1
   23135    22219    22220 1
   23136    22219    22227 1
   23137    22220    22221 1
   23138    22221    22222 1
   23139    22221    22225 1
   23140    22222    22223 1
   23141    22223    22224 1
   23142    22224    22225 1
   23143    22225    22226 1
   23144    22226    22336 1
   23145    22228    22229 1
   23146    22228    22261 1
   23147    22228    22262 1
   23148    22228    22263 1
   23149    22229    22230 1
   23150    22229    22264 1
   23151    22229    22265 1
   23152    22230    22231 1
   23153    22230    22266 1
   23154    22230    22267 1
   23155    22231    22232 1
   23156    22231    22268 1
   23157    22231    22269 1
   23158    22232    22233 1
   23159    22232    22270 1
   23160    22232    22271 1
   23161    22233    22234 1
   23162    22233    22272 1
   23163    22233    22273 1
   23164    22234    22235 1
   23165    22234    22274 1
   23166    22234    22275 1
   23167    22235    22236 1
   23168    22235    22276 1
   23169    22235    22277 1
   23170    22236    22237 1
   23171    22236    22243 1
   23172    22236    22278 1
   23173    22237    22238 1
   23174    22237    22279 1
   23175    22237    22280 1
   23176    22238    22239 1
   23177    22238    22281 1
   23178    22238    22282 1
   23179    22239    22240 1
   23180    22239    22283 1
   23181    22239    22284 1
   23182    22240    22241 1
   23183    22240    22285 1
   23184    22240    22286 1
   23185    22241    22242 1
   23186    22241    22287 1
   23187    22241    22288 1
   23188    22242    22289 1
   23189    22242    22290 1
   23190    22242    22291 1
   23191    22243    22244 1
   23192    22243    22292 1
   23193    22243    22293 1
   23194    22244    22245 1
   23195    22245    22246 1
   23196    22245    22294 1
   23197    22245    22295 1
   23198    22246    22247 1
   23199    22246    22253 1
   23200    22246    22296 1
   23201    22247    22248 1
   23202    22247    22297 1
   23203    22247    22298 1
   23204    22248    22249 1
   23205    22248    22299 1
   23206    22248    22300 1
   23207    22249    22250 1
   23208    22249    22301 1
   23209    22249    22302 1
   23210    22250    22251 1
   23211    22250    22303 1
   23212    22250    22304 1
   23213    22251    22252 1
   23214    22251    22305 1
   23215    22251    22306 1
   23216    22252    22307 1
   23217    22252    22308 1
   23218    22252    22309 1
   23219    22253    22254 1
   23220    22253    22310 1
   23221    22253    22311 1
   23222    22254    22255 1
   23223    22254    22312 1
   23224    22254    22313 1
   23225    22255    22256 1
   23226    22255    22314 1
   23227    22255    22315 1
   23228    22256    22257 1
   23229    22256    22316 1
   23230    22256    22317 1
   23231    22257    22258 1
   23232    22257    22318 1
   23233    22257    22319 1
   23234    22258    22259 1
   23235    22258    22320 1
   23236    22258    22321 1
   23237    22259    22260 1
   23238    22259    22322 1
   23239    22259    22323 1
   23240    22260    22324 1
   23241    22260    22325 1
   23242    22260    22326 1
   23243    22327    22328 1
   23244    22327    22334 1
   23245    22327    22366 1
   23246    22328    22329 1
   23247    22328    22332 1
   23248    22329    22330 1
   23249    22329    22333 1
   23250    22330    22331 1
   23251    22331    22332 1
   23252    22331    22342 1
   23253    22332    22338 1
   23254    22333    22334 1
   23255    22333    22337 1
   23256    22334    22335 1
   23257    22335    22336 1
   23258    22335    22339 1
   23259    22336    22337 1
   23260    22340    22341 1
   23261    22340    22348 1
   23262    22341    22342 1
   23263    22341    22349 1
   23264    22342    22343 1
   23265    22343    22344 1
   23266    22343    22347 1
   23267    22344    22345 1
   23268    22345    22346 1
   23269    22346    22347 1
   23270    22347    22348 1
   23271    22348    22458 1
   23272    22350    22351 1
   23273    22350    22383 1
   23274    22350    22384 1
   23275    22350    22385 1
   23276    22351    22352 1
   23277    22351    22386 1
   23278    22351    22387 1
   23279    22352    22353 1
   23280    22352    22388 1
   23281    22352    22389 1
   23282    22353    22354 1
   23283    22353    22390 1
   23284    22353    22391 1
   23285    22354    22355 1
   23286    22354    22392 1
   23287    22354    22393 1
   23288    22355    22356 1
   23289    22355    22394 1
   23290    22355    22395 1
   23291    22356    22357 1
   23292    22356    22396 1
   23293    22356    22397 1
   23294    22357    22358 1
   23295    22357    22398 1
   23296    22357    22399 1
   23297    22358    22359 1
   23298    22358    22365 1
   23299    22358    22400 1
   23300    22359    22360 1
   23301    22359    22401 1
   23302    22359    22402 1
   23303    22360    22361 1
   23304    22360    22403 1
   23305    22360    22404 1
   23306    22361    22362 1
   23307    22361    22405 1
   23308    22361    22406 1
   23309    22362    22363 1
   23310    22362    22407 1
   23311    22362    22408 1
   23312    22363    22364 1
   23313    22363    22409 1
   23314    22363    22410 1
   23315    22364    22411 1
   23316    22364    22412 1
   23317    22364    22413 1
   23318    22365    22366 1
   23319    22365    22414 1
   23320    22365    22415 1
   23321    22366    22367 1
   23322    22367    22368 1
   23323    22367    22416 1
   23324    22367    22417 1
   23325    22368    22369 1
   23326    22368    22375 1
   23327    22368    22418 1
   23328    22369    22370 1
   23329    22369    22419 1
   23330    22369    22420 1
   23331    22370    22371 1
   23332    22370    22421 1
   23333    22370    22422 1
   23334    22371    22372 1
   23335    22371    22423 1
   23336    22371    22424 1
   23337    22372    22373 1
   23338    22372    22425 1
   23339    22372    22426 1
   23340    22373    22374 1
   23341    22373    22427 1
   23342    22373    22428 1
   23343    22374    22429 1
   23344    22374    22430 1
   23345    22374    22431 1
   23346    22375    22376 1
   23347    22375    22432 1
   23348    22375    22433 1
   23349    22376    22377 1
   23350    22376    22434 1
   23351    22376    22435 1
   23352    22377    22378 1
   23353    22377    22436 1
   23354    22377    22437 1
   23355    22378    22379 1
   23356    22378    22438 1
   23357    22378    22439 1
   23358    22379    22380 1
   23359    22379    22440 1
   23360    22379    22441 1
   23361    22380    22381 1
   23362    22380    22442 1
   23363    22380    22443 1
   23364    22381    22382 1
   23365    22381    22444 1
   23366    22381    22445 1
   23367    22382    22446 1
   23368    22382    22447 1
   23369    22382    22448 1
   23370    22449    22450 1
   23371    22449    22456 1
   23372    22449    22488 1
   23373    22450    22451 1
   23374    22450    22454 1
   23375    22451    22452 1
   23376    22451    22455 1
   23377    22452    22453 1
   23378    22453    22454 1
   23379    22453    22464 1
   23380    22454    22460 1
   23381    22455    22456 1
   23382    22455    22459 1
   23383    22456    22457 1
   23384    22457    22458 1
   23385    22457    22461 1
   23386    22458    22459 1
   23387    22462    22463 1
   23388    22462    22470 1
   23389    22463    22464 1
   23390    22463    22471 1
   23391    22464    22465 1
   23392    22465    22466 1
   23393    22465    22469 1
   23394    22466    22467 1
   23395    22467    22468 1
   23396    22468    22469 1
   23397    22469    22470 1
   23398    22470    22580 1
   23399    22472    22473 1
   23400    22472    22505 1
   23401    22472    22506 1
   23402    22472    22507 1
   23403    22473    22474 1
   23404    22473    22508 1
   23405    22473    22509 1
   23406    22474    22475 1
   23407    22474    22510 1
   23408    22474    22511 1
   23409    22475    22476 1
   23410    22475    22512 1
   23411    22475    22513 1
   23412    22476    22477 1
   23413    22476    22514 1
   23414    22476    22515 1
   23415    22477    22478 1
   23416    22477    22516 1
   23417    22477    22517 1
   23418    22478    22479 1
   23419    22478    22518 1
   23420    22478    22519 1
   23421    22479    22480 1
   23422    22479    22520 1
   23423    22479    22521 1
   23424    22480    22481 1
   23425    22480    22487 1
   23426    22480    22522 1
   23427    22481    22482 1
   23428    22481    22523 1
   23429    22481    22524 1
   23430    22482    22483 1
   23431    22482    22525 1
   23432    22482    22526 1
   23433    22483    22484 1
   23434    22483    22527 1
   23435    22483    22528 1
   23436    22484    22485 1
   23437    22484    22529 1
   23438    22484    22530 1
   23439    22485    22486 1
   23440    22485    22531 1
   23441    22485    22532 1
   23442    22486    22533 1
   23443    22486    22534 1
   23444    22486    22535 1
   23445    22487    22488 1
   23446    22487    22536 1
   23447    22487    22537 1
   23448    22488    22489 1
   23449    22489    22490 1
   23450    22489    22538 1
   23451    22489    22539 1
   23452    22490    22491 1
   23453    22490    22497 1
   23454    22490    22540 1
   23455    22491    22492 1
   23456    22491    22541 1
   23457    22491    22542 1
   23458    22492    22493 1
   23459    22492    22543 1
   23460    22492    22544 1
   23461    22493    22494 1
   23462    22493    22545 1
   23463    22493    22546 1
   23464    22494    22495 1
   23465    22494    22547 1
   23466    22494    22548 1
   23467    22495    22496 1
   23468    22495    22549 1
   23469    22495    22550 1
   23470    22496    22551 1
   23471    22496    22552 1
   23472    22496    22553 1
   23473    22497    22498 1
   23474    22497    22554 1
   23475    22497    22555 1
   23476    22498    22499 1
   23477    22498    22556 1
   23478    22498    22557 1
   23479    22499    22500 1
   23480    22499    22558 1
   23481    22499    22559 1
   23482    22500    22501 1
   23483    22500    22560 1
   23484    22500    22561 1
   23485    22501    22502 1
   23486    22501    22562 1
   23487    22501    22563 1
   23488    22502    22503 1
   23489    22502    22564 1
   23490    22502    22565 1
   23491    22503    22504 1
   23492    22503    22566 1
   23493    22503    22567 1
   23494    22504    22568 1
   23495    22504    22569 1
   23496    22504    22570 1
   23497    22571    22572 1
   23498    22571    22578 1
   23499    22571    22610 1
   23500    22572    22573 1
   23501    22572    22576 1
   23502    22573    22574 1
   23503    22573    22577 1
   23504    22574    22575 1
   23505    22575    22576 1
   23506    22575    22586 1
   23507    22576    22582 1
   23508    22577    22578 1
   23509    22577    22581 1
   23510    22578    22579 1
   23511    22579    22580 1
   23512    22579    22583 1
   23513    22580    22581 1
   23514    22584    22585 1
   23515    22584    22592 1
   23516    22585    22586 1
   23517    22585    22593 1
   23518    22586    22587 1
   23519    22587    22588 1
   23520    22587    22591 1
   23521    22588    22589 1
   23522    22589    22590 1
   23523    22590    22591 1
   23524    22591    22592 1
   23525    22592    22702 1
   23526    22594    22595 1
   23527    22594    22627 1
   23528    22594    22628 1
   23529    22594    22629 1
   23530    22595    22596 1
   23531    22595    22630 1
   23532    22595    22631 1
   23533    22596    22597 1
   23534    22596    22632 1
   23535    22596    22633 1
   23536    22597    22598 1
   23537    22597    22634 1
   23538    22597    22635 1
   23539    22598    22599 1
   23540    22598    22636 1
   23541    22598    22637 1
   23542    22599    22600 1
   23543    22599    22638 1
   23544    22599    22639 1
   23545    22600    22601 1
   23546    22600    22640 1
   23547    22600    22641 1
   23548    22601    22602 1
   23549    22601    22642 1
   23550    22601    22643 1
   23551    22602    22603 1
   23552    22602    22609 1
   23553    22602    22644 1
   23554    22603    22604 1
   23555    22603    22645 1
   23556    22603    22646 1
   23557    22604    22605 1
   23558    22604    22647 1
   23559    22604    22648 1
   23560    22605    22606 1
   23561    22605    22649 1
   23562    22605    22650 1
   23563    22606    22607 1
   23564    22606    22651 1
   23565    22606    22652 1
   23566    22607    22608 1
   23567    22607    22653 1
   23568    22607    22654 1
   23569    22608    22655 1
   23570    22608    22656 1
   23571    22608    22657 1
   23572    22609    22610 1
   23573    22609    22658 1
   23574    22609    22659 1
   23575    22610    22611 1
   23576    22611    22612 1
   23577    22611    22660 1
   23578    22611    22661 1
   23579    22612    22613 1
   23580    22612    22619 1
   23581    22612    22662 1
   23582    22613    22614 1
   23583    22613    22663 1
   23584    22613    22664 1
   23585    22614    22615 1
   23586    22614    22665 1
   23587    22614    22666 1
   23588    22615    22616 1
   23589    22615    22667 1
   23590    22615    22668 1
   23591    22616    22617 1
   23592    22616    22669 1
   23593    22616    22670 1
   23594    22617    22618 1
   23595    22617    22671 1
   23596    22617    22672 1
   23597    22618    22673 1
   23598    22618    22674 1
   23599    22618    22675 1
   23600    22619    22620 1
   23601    22619    22676 1
   23602    22619    22677 1
   23603    22620    22621 1
   23604    22620    22678 1
   23605    22620    22679 1
   23606    22621    22622 1
   23607    22621    22680 1
   23608    22621    22681 1
   23609    22622    22623 1
   23610    22622    22682 1
   23611    22622    22683 1
   23612    22623    22624 1
   23613    22623    22684 1
   23614    22623    22685 1
   23615    22624    22625 1
   23616    22624    22686 1
   23617    22624    22687 1
   23618    22625    22626 1
   23619    22625    22688 1
   23620    22625    22689 1
   23621    22626    22690 1
   23622    22626    22691 1
   23623    22626    22692 1
   23624    22693    22694 1
   23625    22693    22700 1
   23626    22693    22732 1
   23627    22694    22695 1
   23628    22694    22698 1
   23629    22695    22696 1
   23630    22695    22699 1
   23631    22696    22697 1
   23632    22697    22698 1
   23633    22697    22708 1
   23634    22698    22704 1
   23635    22699    22700 1
   23636    22699    22703 1
   23637    22700    22701 1
   23638    22701    22702 1
   23639    22701    22705 1
   23640    22702    22703 1
   23641    22706    22707 1
   23642    22706    22714 1
   23643    22707    22708 1
   23644    22707    22715 1
   23645    22708    22709 1
   23646    22709    22710 1
   23647    22709    22713 1
   23648    22710    22711 1
   23649    22711    22712 1
   23650    22712    22713 1
   23651    22713    22714 1
   23652    22714    22824 1
   23653    22716    22717 1
   23654    22716    22749 1
   23655    22716    22750 1
   23656    22716    22751 1
   23657    22717    22718 1
   23658    22717    22752 1
   23659    22717    22753 1
   23660    22718    22719 1
   23661    22718    22754 1
   23662    22718    22755 1
   23663    22719    22720 1
   23664    22719    22756 1
   23665    22719    22757 1
   23666    22720    22721 1
   23667    22720    22758 1
   23668    22720    22759 1
   23669    22721    22722 1
   23670    22721    22760 1
   23671    22721    22761 1
   23672    22722    22723 1
   23673    22722    22762 1
   23674    22722    22763 1
   23675    22723    22724 1
   23676    22723    22764 1
   23677    22723    22765 1
   23678    22724    22725 1
   23679    22724    22731 1
   23680    22724    22766 1
   23681    22725    22726 1
   23682    22725    22767 1
   23683    22725    22768 1
   23684    22726    22727 1
   23685    22726    22769 1
   23686    22726    22770 1
   23687    22727    22728 1
   23688    22727    22771 1
   23689    22727    22772 1
   23690    22728    22729 1
   23691    22728    22773 1
   23692    22728    22774 1
   23693    22729    22730 1
   23694    22729    22775 1
   23695    22729    22776 1
   23696    22730    22777 1
   23697    22730    22778 1
   23698    22730    22779 1
   23699    22731    22732 1
   23700    22731    22780 1
   23701    22731    22781 1
   23702    22732    22733 1
   23703    22733    22734 1
   23704    22733    22782 1
   23705    22733    22783 1
   23706    22734    22735 1
   23707    22734    22741 1
   23708    22734    22784 1
   23709    22735    22736 1
   23710    22735    22785 1
   23711    22735    22786 1
   23712    22736    22737 1
   23713    22736    22787 1
   23714    22736    22788 1
   23715    22737    22738 1
   23716    22737    22789 1
   23717    22737    22790 1
   23718    22738    22739 1
   23719    22738    22791 1
   23720    22738    22792 1
   23721    22739    22740 1
   23722    22739    22793 1
   23723    22739    22794 1
   23724    22740    22795 1
   23725    22740    22796 1
   23726    22740    22797 1
   23727    22741    22742 1
   23728    22741    22798 1
   23729    22741    22799 1
   23730    22742    22743 1
   23731    22742    22800 1
   23732    22742    22801 1
   23733    22743    22744 1
   23734    22743    22802 1
   23735    22743    22803 1
   23736    22744    22745 1
   23737    22744    22804 1
   23738    22744    22805 1
   23739    22745    22746 1
   23740    22745    22806 1
   23741    22745    22807 1
   23742    22746    22747 1
   23743    22746    22808 1
   23744    22746    22809 1
   23745    22747    22748 1
   23746    22747    22810 1
   23747    22747    22811 1
   23748    22748    22812 1
   23749    22748    22813 1
   23750    22748    22814 1
   23751    22815    22816 1
   23752    22815    22822 1
   23753    22815    22854 1
   23754    22816    22817 1
   23755    22816    22820 1
   23756    22817    22818 1
   23757    22817    22821 1
   23758    22818    22819 1
   23759    22819    22820 1
   23760    22819    22830 1
   23761    22820    22826 1
   23762    22821    22822 1
   23763    22821    22825 1
   23764    22822    22823 1
   23765    22823    22824 1
   23766    22823    22827 1
   23767    22824    22825 1
   23768    22828    22829 1
   23769    22828    22836 1
   23770    22829    22830 1
   23771    22829    22837 1
   23772    22830    22831 1
   23773    22831    22832 1
   23774    22831    22835 1
   23775    22832    22833 1
   23776    22833    22834 1
   23777    22834    22835 1
   23778    22835    22836 1
   23779    22836    22946 1
   23780    22838    22839 1
   23781    22838    22871 1
   23782    22838    22872 1
   23783    22838    22873 1
   23784    22839    22840 1
   23785    22839    22874 1
   23786    22839    22875 1
   23787    22840    22841 1
   23788    22840    22876 1
   23789    22840    22877 1
   23790    22841    22842 1
   23791    22841    22878 1
   23792    22841    22879 1
   23793    22842    22843 1
   23794    22842    22880 1
   23795    22842    22881 1
   23796    22843    22844 1
   23797    22843    22882 1
   23798    22843    22883 1
   23799    22844    22845 1
   23800    22844    22884 1
   23801    22844    22885 1
   23802    22845    22846 1
   23803    22845    22886 1
   23804    22845    22887 1
   23805    22846    22847 1
   23806    22846    22853 1
   23807    22846    22888 1
   23808    22847    22848 1
   23809    22847    22889 1
   23810    22847    22890 1
   23811    22848    22849 1
   23812    22848    22891 1
   23813    22848    22892 1
   23814    22849    22850 1
   23815    22849    22893 1
   23816    22849    22894 1
   23817    22850    22851 1
   23818    22850    22895 1
   23819    22850    22896 1
   23820    22851    22852 1
   23821    22851    22897 1
   23822    22851    22898 1
   23823    22852    22899 1
   23824    22852    22900 1
   23825    22852    22901 1
   23826    22853    22854 1
   23827    22853    22902 1
   23828    22853    22903 1
   23829    22854    22855 1
   23830    22855    22856 1
   23831    22855    22904 1
   23832    22855    22905 1
   23833    22856    22857 1
   23834    22856    22863 1
   23835    22856    22906 1
   23836    22857    22858 1
   23837    22857    22907 1
   23838    22857    22908 1
   23839    22858    22859 1
   23840    22858    22909 1
   23841    22858    22910 1
   23842    22859    22860 1
   23843    22859    22911 1
   23844    22859    22912 1
   23845    22860    22861 1
   23846    22860    22913 1
   23847    22860    22914 1
   23848    22861    22862 1
   23849    22861    22915 1
   23850    22861    22916 1
   23851    22862    22917 1
   23852    22862    22918 1
   23853    22862    22919 1
   23854    22863    22864 1
   23855    22863    22920 1
   23856    22863    22921 1
   23857    22864    22865 1
   23858    22864    22922 1
   23859    22864    22923 1
   23860    22865    22866 1
   23861    22865    22924 1
   23862    22865    22925 1
   23863    22866    22867 1
   23864    22866    22926 1
   23865    22866    22927 1
   23866    22867    22868 1
   23867    22867    22928 1
   23868    22867    22929 1
   23869    22868    22869 1
   23870    22868    22930 1
   23871    22868    22931 1
   23872    22869    22870 1
   23873    22869    22932 1
   23874    22869    22933 1
   23875    22870    22934 1
   23876    22870    22935 1
   23877    22870    22936 1
   23878    22937    22938 1
   23879    22937    22944 1
   23880    22937    22976 1
   23881    22938    22939 1
   23882    22938    22942 1
   23883    22939    22940 1
   23884    22939    22943 1
   23885    22940    22941 1
   23886    22941    22942 1
   23887    22941    22952 1
   23888    22942    22948 1
   23889    22943    22944 1
   23890    22943    22947 1
   23891    22944    22945 1
   23892    22945    22946 1
   23893    22945    22949 1
   23894    22946    22947 1
   23895    22950    22951 1
   23896    22950    22958 1
   23897    22951    22952 1
   23898    22951    22959 1
   23899    22952    22953 1
   23900    22953    22954 1
   23901    22953    22957 1
   23902    22954    22955 1
   23903    22955    22956 1
   23904    22956    22957 1
   23905    22957    22958 1
   23906    22958    23068 1
   23907    22960    22961 1
   23908    22960    22993 1
   23909    22960    22994 1
   23910    22960    22995 1
   23911    22961    22962 1
   23912    22961    22996 1
   23913    22961    22997 1
   23914    22962    22963 1
   23915    22962    22998 1
   23916    22962    22999 1
   23917    22963    22964 1
   23918    22963    23000 1
   23919    22963    23001 1
   23920    22964    22965 1
   23921    22964    23002 1
   23922    22964    23003 1
   23923    22965    22966 1
   23924    22965    23004 1
   23925    22965    23005 1
   23926    22966    22967 1
   23927    22966    23006 1
   23928    22966    23007 1
   23929    22967    22968 1
   23930    22967    23008 1
   23931    22967    23009 1
   23932    22968    22969 1
   23933    22968    22975 1
   23934    22968    23010 1
   23935    22969    22970 1
   23936    22969    23011 1
   23937    22969    23012 1
   23938    22970    22971 1
   23939    22970    23013 1
   23940    22970    23014 1
   23941    22971    22972 1
   23942    22971    23015 1
   23943    22971    23016 1
   23944    22972    22973 1
   23945    22972    23017 1
   23946    22972    23018 1
   23947    22973    22974 1
   23948    22973    23019 1
   23949    22973    23020 1
   23950    22974    23021 1
   23951    22974    23022 1
   23952    22974    23023 1
   23953    22975    22976 1
   23954    22975    23024 1
   23955    22975    23025 1
   23956    22976    22977 1
   23957    22977    22978 1
   23958    22977    23026 1
   23959    22977    23027 1
   23960    22978    22979 1
   23961    22978    22985 1
   23962    22978    23028 1
   23963    22979    22980 1
   23964    22979    23029 1
   23965    22979    23030 1
   23966    22980    22981 1
   23967    22980    23031 1
   23968    22980    23032 1
   23969    22981    22982 1
   23970    22981    23033 1
   23971    22981    23034 1
   23972    22982    22983 1
   23973    22982    23035 1
   23974    22982    23036 1
   23975    22983    22984 1
   23976    22983    23037 1
   23977    22983    23038 1
   23978    22984    23039 1
   23979    22984    23040 1
   23980    22984    23041 1
   23981    22985    22986 1
   23982    22985    23042 1
   23983    22985    23043 1
   23984    22986    22987 1
   23985    22986    23044 1
   23986    22986    23045 1
   23987    22987    22988 1
   23988    22987    23046 1
   23989    22987    23047 1
   23990    22988    22989 1
   23991    22988    23048 1
   23992    22988    23049 1
   23993    22989    22990 1
   23994    22989    23050 1
   23995    22989    23051 1
   23996    22990    22991 1
   23997    22990    23052 1
   23998    22990    23053 1
   23999    22991    22992 1
   24000    22991    23054 1
   24001    22991    23055 1
   24002    22992    23056 1
   24003    22992    23057 1
   24004    22992    23058 1
   24005    23059    23060 1
   24006    23059    23066 1
   24007    23059    23098 1
   24008    23060    23061 1
   24009    23060    23064 1
   24010    23061    23062 1
   24011    23061    23065 1
   24012    23062    23063 1
   24013    23063    23064 1
   24014    23063    23074 1
   24015    23064    23070 1
   24016    23065    23066 1
   24017    23065    23069 1
   24018    23066    23067 1
   24019    23067    23068 1
   24020    23067    23071 1
   24021    23068    23069 1
   24022    23072    23073 1
   24023    23072    23080 1
   24024    23073    23074 1
   24025    23073    23081 1
   24026    23074    23075 1
   24027    23075    23076 1
   24028    23075    23079 1
   24029    23076    23077 1
   24030    23077    23078 1
   24031    23078    23079 1
   24032    23079    23080 1
   24033    23080    23190 1
   24034    23082    23083 1
   24035    23082    23115 1
   24036    23082    23116 1
   24037    23082    23117 1
   24038    23083    23084 1
   24039    23083    23118 1
   24040    23083    23119 1
   24041    23084    23085 1
   24042    23084    23120 1
   24043    23084    23121 1
   24044    23085    23086 1
   24045    23085    23122 1
   24046    23085    23123 1
   24047    23086    23087 1
   24048    23086    23124 1
   24049    23086    23125 1
   24050    23087    23088 1
   24051    23087    23126 1
   24052    23087    23127 1
   24053    23088    23089 1
   24054    23088    23128 1
   24055    23088    23129 1
   24056    23089    23090 1
   24057    23089    23130 1
   24058    23089    23131 1
   24059    23090    23091 1
   24060    23090    23097 1
   24061    23090    23132 1
   24062    23091    23092 1
   24063    23091    23133 1
   24064    23091    23134 1
   24065    23092    23093 1
   24066    23092    23135 1
   24067    23092    23136 1
   24068    23093    23094 1
   24069    23093    23137 1
   24070    23093    23138 1
   24071    23094    23095 1
   24072    23094    23139 1
   24073    23094    23140 1
   24074    23095    23096 1
   24075    23095    23141 1
   24076    23095    23142 1
   24077    23096    23143 1
   24078    23096    23144 1
   24079    23096    23145 1
   24080    23097    23098 1
   24081    23097    23146 1
   24082    23097    23147 1
   24083    23098    23099 1
   24084    23099    23100 1
   24085    23099    23148 1
   24086    23099    23149 1
   24087    23100    23101 1
   24088    23100    23107 1
   24089    23100    23150 1
   24090    23101    23102 1
   24091    23101    23151 1
   24092    23101    23152 1
   24093    23102    23103 1
   24094    23102    23153 1
   24095    23102    23154 1
   24096    23103    23104 1
   24097    23103    23155 1
   24098    23103    23156 1
   24099    23104    23105 1
   24100    23104    23157 1
   24101    23104    23158 1
   24102    23105    23106 1
   24103    23105    23159 1
   24104    23105    23160 1
   24105    23106    23161 1
   24106    23106    23162 1
   24107    23106    23163 1
   24108    23107    23108 1
   24109    23107    23164 1
   24110    23107    23165 1
   24111    23108    23109 1
   24112    23108    23166 1
   24113    23108    23167 1
   24114    23109    23110 1
   24115    23109    23168 1
   24116    23109    23169 1
   24117    23110    23111 1
   24118    23110    23170 1
   24119    23110    23171 1
   24120    23111    23112 1
   24121    23111    23172 1
   24122    23111    23173 1
   24123    23112    23113 1
   24124    23112    23174 1
   24125    23112    23175 1
   24126    23113    23114 1
   24127    23113    23176 1
   24128    23113    23177 1
   24129    23114    23178 1
   24130    23114    23179 1
   24131    23114    23180 1
   24132    23181    23182 1
   24133    23181    23188 1
   24134    23181    23220 1
   24135    23182    23183 1
   24136    23182    23186 1
   24137    23183    23184 1
   24138    23183    23187 1
   24139    23184    23185 1
   24140    23185    23186 1
   24141    23185    23196 1
   24142    23186    23192 1
   24143    23187    23188 1
   24144    23187    23191 1
   24145    23188    23189 1
   24146    23189    23190 1
   24147    23189    23193 1
   24148    23190    23191 1
   24149    23194    23195 1
   24150    23194    23202 1
   24151    23195    23196 1
   24152    23195    23203 1
   24153    23196    23197 1
   24154    23197    23198 1
   24155    23197    23201 1
   24156    23198    23199 1
   24157    23199    23200 1
   24158    23200    23201 1
   24159    23201    23202 1
   24160    23202    23312 1
   24161    23204    23205 1
   24162    23204    23237 1
   24163    23204    23238 1
   24164    23204    23239 1
   24165    23205    23206 1
   24166    23205    23240 1
   24167    23205    23241 1
   24168    23206    23207 1
   24169    23206    23242 1
   24170    23206    23243 1
   24171    23207    23208 1
   24172    23207    23244 1
   24173    23207    23245 1
   24174    23208    23209 1
   24175    23208    23246 1
   24176    23208    23247 1
   24177    23209    23210 1
   24178    23209    23248 1
   24179    23209    23249 1
   24180    23210    23211 1
   24181    23210    23250 1
   24182    23210    23251 1
   24183    23211    23212 1
   24184    23211    23252 1
   24185    23211    23253 1
   24186    23212    23213 1
   24187    23212    23219 1
   24188    23212    23254 1
   24189    23213    23214 1
   24190    23213    23255 1
   24191    23213    23256 1
   24192    23214    23215 1
   24193    23214    23257 1
   24194    23214    23258 1
   24195    23215    23216 1
   24196    23215    23259 1
   24197    23215    23260 1
   24198    23216    23217 1
   24199    23216    23261 1
   24200    23216    23262 1
   24201    23217    23218 1
   24202    23217    23263 1
   24203    23217    23264 1
   24204    23218    23265 1
   24205    23218    23266 1
   24206    23218    23267 1
   24207    23219    23220 1
   24208    23219    23268 1
   24209    23219    23269 1
   24210    23220    23221 1
   24211    23221    23222 1
   24212    23221    23270 1
   24213    23221    23271 1
   24214    23222    23223 1
   24215    23222    23229 1
   24216    23222    23272 1
   24217    23223    23224 1
   24218    23223    23273 1
   24219    23223    23274 1
   24220    23224    23225 1
   24221    23224    23275 1
   24222    23224    23276 1
   24223    23225    23226 1
   24224    23225    23277 1
   24225    23225    23278 1
   24226    23226    23227 1
   24227    23226    23279 1
   24228    23226    23280 1
   24229    23227    23228 1
   24230    23227    23281 1
   24231    23227    23282 1
   24232    23228    23283 1
   24233    23228    23284 1
   24234    23228    23285 1
   24235    23229    23230 1
   24236    23229    23286 1
   24237    23229    23287 1
   24238    23230    23231 1
   24239    23230    23288 1
   24240    23230    23289 1
   24241    23231    23232 1
   24242    23231    23290 1
   24243    23231    23291 1
   24244    23232    23233 1
   24245    23232    23292 1
   24246    23232    23293 1
   24247    23233    23234 1
   24248    23233    23294 1
   24249    23233    23295 1
   24250    23234    23235 1
   24251    23234    23296 1
   24252    23234    23297 1
   24253    23235    23236 1
   24254    23235    23298 1
   24255    23235    23299 1
   24256    23236    23300 1
   24257    23236    23301 1
   24258    23236    23302 1
   24259    23303    23304 1
   24260    23303    23310 1
   24261    23303    23342 1
   24262    23304    23305 1
   24263    23304    23308 1
   24264    23305    23306 1
   24265    23305    23309 1
   24266    23306    23307 1
   24267    23307    23308 1
   24268    23307    23318 1
   24269    23308    23314 1
   24270    23309    23310 1
   24271    23309    23313 1
   24272    23310    23311 1
   24273    23311    23312 1
   24274    23311    23315 1
   24275    23312    23313 1
   24276    23316    23317 1
   24277    23316    23324 1
   24278    23317    23318 1
   24279    23317    23325 1
   24280    23318    23319 1
   24281    23319    23320 1
   24282    23319    23323 1
   24283    23320    23321 1
   24284    23321    23322 1
   24285    23322    23323 1
   24286    23323    23324 1
   24287    23324    23434 1
   24288    23326    23327 1
   24289    23326    23359 1
   24290    23326    23360 1
   24291    23326    23361 1
   24292    23327    23328 1
   24293    23327    23362 1
   24294    23327    23363 1
   24295    23328    23329 1
   24296    23328    23364 1
   24297    23328    23365 1
   24298    23329    23330 1
   24299    23329    23366 1
   24300    23329    23367 1
   24301    23330    23331 1
   24302    23330    23368 1
   24303    23330    23369 1
   24304    23331    23332 1
   24305    23331    23370 1
   24306    23331    23371 1
   24307    23332    23333 1
   24308    23332    23372 1
   24309    23332    23373 1
   24310    23333    23334 1
   24311    23333    23374 1
   24312    23333    23375 1
   24313    23334    23335 1
   24314    23334    23341 1
   24315    23334    23376 1
   24316    23335    23336 1
   24317    23335    23377 1
   24318    23335    23378 1
   24319    23336    23337 1
   24320    23336    23379 1
   24321    23336    23380 1
   24322    23337    23338 1
   24323    23337    23381 1
   24324    23337    23382 1
   24325    23338    23339 1
   24326    23338    23383 1
   24327    23338    23384 1
   24328    23339    23340 1
   24329    23339    23385 1
   24330    23339    23386 1
   24331    23340    23387 1
   24332    23340    23388 1
   24333    23340    23389 1
   24334    23341    23342 1
   24335    23341    23390 1
   24336    23341    23391 1
   24337    23342    23343 1
   24338    23343    23344 1
   24339    23343    23392 1
   24340    23343    23393 1
   24341    23344    23345 1
   24342    23344    23351 1
   24343    23344    23394 1
   24344    23345    23346 1
   24345    23345    23395 1
   24346    23345    23396 1
   24347    23346    23347 1
   24348    23346    23397 1
   24349    23346    23398 1
   24350    23347    23348 1
   24351    23347    23399 1
   24352    23347    23400 1
   24353    23348    23349 1
   24354    23348    23401 1
   24355    23348    23402 1
   24356    23349    23350 1
   24357    23349    23403 1
   24358    23349    23404 1
   24359    23350    23405 1
   24360    23350    23406 1
   24361    23350    23407 1
   24362    23351    23352 1
   24363    23351    23408 1
   24364    23351    23409 1
   24365    23352    23353 1
   24366    23352    23410 1
   24367    23352    23411 1
   24368    23353    23354 1
   24369    23353    23412 1
   24370    23353    23413 1
   24371    23354    23355 1
   24372    23354    23414 1
   24373    23354    23415 1
   24374    23355    23356 1
   24375    23355    23416 1
   24376    23355    23417 1
   24377    23356    23357 1
   24378    23356    23418 1
   24379    23356    23419 1
   24380    23357    23358 1
   24381    23357    23420 1
   24382    23357    23421 1
   24383    23358    23422 1
   24384    23358    23423 1
   24385    23358    23424 1
   24386    23425    23426 1
   24387    23425    23432 1
   24388    23425    23464 1
   24389    23426    23427 1
   24390    23426    23430 1
   24391    23427    23428 1
   24392    23427    23431 1
   24393    23428    23429 1
   24394    23429    23430 1
   24395    23429    23440 1
   24396    23430    23436 1
   24397    23431    23432 1
   24398    23431    23435 1
   24399    23432    23433 1
   24400    23433    23434 1
   24401    23433    23437 1
   24402    23434    23435 1
   24403    23438    23439 1
   24404    23438    23446 1
   24405    23439    23440 1
   24406    23439    23447 1
   24407    23440    23441 1
   24408    23441    23442 1
   24409    23441    23445 1
   24410    23442    23443 1
   24411    23443    23444 1
   24412    23444    23445 1
   24413    23445    23446 1
   24414    23446    23556 1
   24415    23448    23449 1
   24416    23448    23481 1
   24417    23448    23482 1
   24418    23448    23483 1
   24419    23449    23450 1
   24420    23449    23484 1
   24421    23449    23485 1
   24422    23450    23451 1
   24423    23450    23486 1
   24424    23450    23487 1
   24425    23451    23452 1
   24426    23451    23488 1
   24427    23451    23489 1
   24428    23452    23453 1
   24429    23452    23490 1
   24430    23452    23491 1
   24431    23453    23454 1
   24432    23453    23492 1
   24433    23453    23493 1
   24434    23454    23455 1
   24435    23454    23494 1
   24436    23454    23495 1
   24437    23455    23456 1
   24438    23455    23496 1
   24439    23455    23497 1
   24440    23456    23457 1
   24441    23456    23463 1
   24442    23456    23498 1
   24443    23457    23458 1
   24444    23457    23499 1
   24445    23457    23500 1
   24446    23458    23459 1
   24447    23458    23501 1
   24448    23458    23502 1
   24449    23459    23460 1
   24450    23459    23503 1
   24451    23459    23504 1
   24452    23460    23461 1
   24453    23460    23505 1
   24454    23460    23506 1
   24455    23461    23462 1
   24456    23461    23507 1
   24457    23461    23508 1
   24458    23462    23509 1
   24459    23462    23510 1
   24460    23462    23511 1
   24461    23463    23464 1
   24462    23463    23512 1
   24463    23463    23513 1
   24464    23464    23465 1
   24465    23465    23466 1
   24466    23465    23514 1
   24467    23465    23515 1
   24468    23466    23467 1
   24469    23466    23473 1
   24470    23466    23516 1
   24471    23467    23468 1
   24472    23467    23517 1
   24473    23467    23518 1
   24474    23468    23469 1
   24475    23468    23519 1
   24476    23468    23520 1
   24477    23469    23470 1
   24478    23469    23521 1
   24479    23469    23522 1
   24480    23470    23471 1
   24481    23470    23523 1
   24482    23470    23524 1
   24483    23471    23472 1
   24484    23471    23525 1
   24485    23471    23526 1
   24486    23472    23527 1
   24487    23472    23528 1
   24488    23472    23529 1
   24489    23473    23474 1
   24490    23473    23530 1
   24491    23473    23531 1
   24492    23474    23475 1
   24493    23474    23532 1
   24494    23474    23533 1
   24495    23475    23476 1
   24496    23475    23534 1
   24497    23475    23535 1
   24498    23476    23477 1
   24499    23476    23536 1
   24500    23476    23537 1
   24501    23477    23478 1
   24502    23477    23538 1
   24503    23477    23539 1
   24504    23478    23479 1
   24505    23478    23540 1
   24506    23478    23541 1
   24507    23479    23480 1
   24508    23479    23542 1
   24509    23479    23543 1
   24510    23480    23544 1
   24511    23480    23545 1
   24512    23480    23546 1
   24513    23547    23548 1
   24514    23547    23554 1
   24515    23547    23586 1
   24516    23548    23549 1
   24517    23548    23552 1
   24518    23549    23550 1
   24519    23549    23553 1
   24520    23550    23551 1
   24521    23551    23552 1
   24522    23551    23562 1
   24523    23552    23558 1
   24524    23553    23554 1
   24525    23553    23557 1
   24526    23554    23555 1
   24527    23555    23556 1
   24528    23555    23559 1
   24529    23556    23557 1
   24530    23560    23561 1
   24531    23560    23568 1
   24532    23561    23562 1
   24533    23561    23569 1
   24534    23562    23563 1
   24535    23563    23564 1
   24536    23563    23567 1
   24537    23564    23565 1
   24538    23565    23566 1
   24539    23566    23567 1
   24540    23567    23568 1
   24541    23568    23678 1
   24542    23570    23571 1
   24543    23570    23603 1
   24544    23570    23604 1
   24545    23570    23605 1
   24546    23571    23572 1
   24547    23571    23606 1
   24548    23571    23607 1
   24549    23572    23573 1
   24550    23572    23608 1
   24551    23572    23609 1
   24552    23573    23574 1
   24553    23573    23610 1
   24554    23573    23611 1
   24555    23574    23575 1
   24556    23574    23612 1
   24557    23574    23613 1
   24558    23575    23576 1
   24559    23575    23614 1
   24560    23575    23615 1
   24561    23576    23577 1
   24562    23576    23616 1
   24563    23576    23617 1
   24564    23577    23578 1
   24565    23577    23618 1
   24566    23577    23619 1
   24567    23578    23579 1
   24568    23578    23585 1
   24569    23578    23620 1
   24570    23579    23580 1
   24571    23579    23621 1
   24572    23579    23622 1
   24573    23580    23581 1
   24574    23580    23623 1
   24575    23580    23624 1
   24576    23581    23582 1
   24577    23581    23625 1
   24578    23581    23626 1
   24579    23582    23583 1
   24580    23582    23627 1
   24581    23582    23628 1
   24582    23583    23584 1
   24583    23583    23629 1
   24584    23583    23630 1
   24585    23584    23631 1
   24586    23584    23632 1
   24587    23584    23633 1
   24588    23585    23586 1
   24589    23585    23634 1
   24590    23585    23635 1
   24591    23586    23587 1
   24592    23587    23588 1
   24593    23587    23636 1
   24594    23587    23637 1
   24595    23588    23589 1
   24596    23588    23595 1
   24597    23588    23638 1
   24598    23589    23590 1
   24599    23589    23639 1
   24600    23589    23640 1
   24601    23590    23591 1
   24602    23590    23641 1
   24603    23590    23642 1
   24604    23591    23592 1
   24605    23591    23643 1
   24606    23591    23644 1
   24607    23592    23593 1
   24608    23592    23645 1
   24609    23592    23646 1
   24610    23593    23594 1
   24611    23593    23647 1
   24612    23593    23648 1
   24613    23594    23649 1
   24614    23594    23650 1
   24615    23594    23651 1
   24616    23595    23596 1
   24617    23595    23652 1
   24618    23595    23653 1
   24619    23596    23597 1
   24620    23596    23654 1
   24621    23596    23655 1
   24622    23597    23598 1
   24623    23597    23656 1
   24624    23597    23657 1
   24625    23598    23599 1
   24626    23598    23658 1
   24627    23598    23659 1
   24628    23599    23600 1
   24629    23599    23660 1
   24630    23599    23661 1
   24631    23600    23601 1
   24632    23600    23662 1
   24633    23600    23663 1
   24634    23601    23602 1
   24635    23601    23664 1
   24636    23601    23665 1
   24637    23602    23666 1
   24638    23602    23667 1
   24639    23602    23668 1
   24640    23669    23670 1
   24641    23669    23676 1
   24642    23669    23708 1
   24643    23670    23671 1
   24644    23670    23674 1
   24645    23671    23672 1
   24646    23671    23675 1
   24647    23672    23673 1
   24648    23673    23674 1
   24649    23673    23684 1
   24650    23674    23680 1
   24651    23675    23676 1
   24652    23675    23679 1
   24653    23676    23677 1
   24654    23677    23678 1
   24655    23677    23681 1
   24656    23678    23679 1
   24657    23682    23683 1
   24658    23682    23690 1
   24659    23683    23684 1
   24660    23683    23691 1
   24661    23684    23685 1
   24662    23685    23686 1
   24663    23685    23689 1
   24664    23686    23687 1
   24665    23687    23688 1
   24666    23688    23689 1
   24667    23689    23690 1
   24668    23690    23800 1
   24669    23692    23693 1
   24670    23692    23725 1
   24671    23692    23726 1
   24672    23692    23727 1
   24673    23693    23694 1
   24674    23693    23728 1
   24675    23693    23729 1
   24676    23694    23695 1
   24677    23694    23730 1
   24678    23694    23731 1
   24679    23695    23696 1
   24680    23695    23732 1
   24681    23695    23733 1
   24682    23696    23697 1
   24683    23696    23734 1
   24684    23696    23735 1
   24685    23697    23698 1
   24686    23697    23736 1
   24687    23697    23737 1
   24688    23698    23699 1
   24689    23698    23738 1
   24690    23698    23739 1
   24691    23699    23700 1
   24692    23699    23740 1
   24693    23699    23741 1
   24694    23700    23701 1
   24695    23700    23707 1
   24696    23700    23742 1
   24697    23701    23702 1
   24698    23701    23743 1
   24699    23701    23744 1
   24700    23702    23703 1
   24701    23702    23745 1
   24702    23702    23746 1
   24703    23703    23704 1
   24704    23703    23747 1
   24705    23703    23748 1
   24706    23704    23705 1
   24707    23704    23749 1
   24708    23704    23750 1
   24709    23705    23706 1
   24710    23705    23751 1
   24711    23705    23752 1
   24712    23706    23753 1
   24713    23706    23754 1
   24714    23706    23755 1
   24715    23707    23708 1
   24716    23707    23756 1
   24717    23707    23757 1
   24718    23708    23709 1
   24719    23709    23710 1
   24720    23709    23758 1
   24721    23709    23759 1
   24722    23710    23711 1
   24723    23710    23717 1
   24724    23710    23760 1
   24725    23711    23712 1
   24726    23711    23761 1
   24727    23711    23762 1
   24728    23712    23713 1
   24729    23712    23763 1
   24730    23712    23764 1
   24731    23713    23714 1
   24732    23713    23765 1
   24733    23713    23766 1
   24734    23714    23715 1
   24735    23714    23767 1
   24736    23714    23768 1
   24737    23715    23716 1
   24738    23715    23769 1
   24739    23715    23770 1
   24740    23716    23771 1
   24741    23716    23772 1
   24742    23716    23773 1
   24743    23717    23718 1
   24744    23717    23774 1
   24745    23717    23775 1
   24746    23718    23719 1
   24747    23718    23776 1
   24748    23718    23777 1
   24749    23719    23720 1
   24750    23719    23778 1
   24751    23719    23779 1
   24752    23720    23721 1
   24753    23720    23780 1
   24754    23720    23781 1
   24755    23721    23722 1
   24756    23721    23782 1
   24757    23721    23783 1
   24758    23722    23723 1
   24759    23722    23784 1
   24760    23722    23785 1
   24761    23723    23724 1
   24762    23723    23786 1
   24763    23723    23787 1
   24764    23724    23788 1
   24765    23724    23789 1
   24766    23724    23790 1
   24767    23791    23792 1
   24768    23791    23798 1
   24769    23791    23830 1
   24770    23792    23793 1
   24771    23792    23796 1
   24772    23793    23794 1
   24773    23793    23797 1
   24774    23794    23795 1
   24775    23795    23796 1
   24776    23795    23806 1
   24777    23796    23802 1
   24778    23797    23798 1
   24779    23797    23801 1
   24780    23798    23799 1
   24781    23799    23800 1
   24782    23799    23803 1
   24783    23800    23801 1
   24784    23804    23805 1
   24785    23804    23812 1
   24786    23805    23806 1
   24787    23805    23813 1
   24788    23806    23807 1
   24789    23807    23808 1
   24790    23807    23811 1
   24791    23808    23809 1
   24792    23809    23810 1
   24793    23810    23811 1
   24794    23811    23812 1
   24795    23812    23922 1
   24796    23814    23815 1
   24797    23814    23847 1
   24798    23814    23848 1
   24799    23814    23849 1
   24800    23815    23816 1
   24801    23815    23850 1
   24802    23815    23851 1
   24803    23816    23817 1
   24804    23816    23852 1
   24805    23816    23853 1
   24806    23817    23818 1
   24807    23817    23854 1
   24808    23817    23855 1
   24809    23818    23819 1
   24810    23818    23856 1
   24811    23818    23857 1
   24812    23819    23820 1
   24813    23819    23858 1
   24814    23819    23859 1
   24815    23820    23821 1
   24816    23820    23860 1
   24817    23820    23861 1
   24818    23821    23822 1
   24819    23821    23862 1
   24820    23821    23863 1
   24821    23822    23823 1
   24822    23822    23829 1
   24823    23822    23864 1
   24824    23823    23824 1
   24825    23823    23865 1
   24826    23823    23866 1
   24827    23824    23825 1
   24828    23824    23867 1
   24829    23824    23868 1
   24830    23825    23826 1
   24831    23825    23869 1
   24832    23825    23870 1
   24833    23826    23827 1
   24834    23826    23871 1
   24835    23826    23872 1
   24836    23827    23828 1
   24837    23827    23873 1
   24838    23827    23874 1
   24839    23828    23875 1
   24840    23828    23876 1
   24841    23828    23877 1
   24842    23829    23830 1
   24843    23829    23878 1
   24844    23829    23879 1
   24845    23830    23831 1
   24846    23831    23832 1
   24847    23831    23880 1
   24848    23831    23881 1
   24849    23832    23833 1
   24850    23832    23839 1
   24851    23832    23882 1
   24852    23833    23834 1
   24853    23833    23883 1
   24854    23833    23884 1
   24855    23834    23835 1
   24856    23834    23885 1
   24857    23834    23886 1
   24858    23835    23836 1
   24859    23835    23887 1
   24860    23835    23888 1
   24861    23836    23837 1
   24862    23836    23889 1
   24863    23836    23890 1
   24864    23837    23838 1
   24865    23837    23891 1
   24866    23837    23892 1
   24867    23838    23893 1
   24868    23838    23894 1
   24869    23838    23895 1
   24870    23839    23840 1
   24871    23839    23896 1
   24872    23839    23897 1
   24873    23840    23841 1
   24874    23840    23898 1
   24875    23840    23899 1
   24876    23841    23842 1
   24877    23841    23900 1
   24878    23841    23901 1
   24879    23842    23843 1
   24880    23842    23902 1
   24881    23842    23903 1
   24882    23843    23844 1
   24883    23843    23904 1
   24884    23843    23905 1
   24885    23844    23845 1
   24886    23844    23906 1
   24887    23844    23907 1
   24888    23845    23846 1
   24889    23845    23908 1
   24890    23845    23909 1
   24891    23846    23910 1
   24892    23846    23911 1
   24893    23846    23912 1
   24894    23913    23914 1
   24895    23913    23920 1
   24896    23913    23952 1
   24897    23914    23915 1
   24898    23914    23918 1
   24899    23915    23916 1
   24900    23915    23919 1
   24901    23916    23917 1
   24902    23917    23918 1
   24903    23917    23928 1
   24904    23918    23924 1
   24905    23919    23920 1
   24906    23919    23923 1
   24907    23920    23921 1
   24908    23921    23922 1
   24909    23921    23925 1
   24910    23922    23923 1
   24911    23926    23927 1
   24912    23926    23934 1
   24913    23927    23928 1
   24914    23927    23935 1
   24915    23928    23929 1
   24916    23929    23930 1
   24917    23929    23933 1
   24918    23930    23931 1
   24919    23931    23932 1
   24920    23932    23933 1
   24921    23933    23934 1
   24922    23934    24044 1
   24923    23936    23937 1
   24924    23936    23969 1
   24925    23936    23970 1
   24926    23936    23971 1
   24927    23937    23938 1
   24928    23937    23972 1
   24929    23937    23973 1
   24930    23938    23939 1
   24931    23938    23974 1
   24932    23938    23975 1
   24933    23939    23940 1
   24934    23939    23976 1
   24935    23939    23977 1
   24936    23940    23941 1
   24937    23940    23978 1
   24938    23940    23979 1
   24939    23941    23942 1
   24940    23941    23980 1
   24941    23941    23981 1
   24942    23942    23943 1
   24943    23942    23982 1
   24944    23942    23983 1
   24945    23943    23944 1
   24946    23943    23984 1
   24947    23943    23985 1
   24948    23944    23945 1
   24949    23944    23951 1
   24950    23944    23986 1
   24951    23945    23946 1
   24952    23945    23987 1
   24953    23945    23988 1
   24954    23946    23947 1
   24955    23946    23989 1
   24956    23946    23990 1
   24957    23947    23948 1
   24958    23947    23991 1
   24959    23947    23992 1
   24960    23948    23949 1
   24961    23948    23993 1
   24962    23948    23994 1
   24963    23949    23950 1
   24964    23949    23995 1
   24965    23949    23996 1
   24966    23950    23997 1
   24967    23950    23998 1
   24968    23950    23999 1
   24969    23951    23952 1
   24970    23951    24000 1
   24971    23951    24001 1
   24972    23952    23953 1
   24973    23953    23954 1
   24974    23953    24002 1
   24975    23953    24003 1
   24976    23954    23955 1
   24977    23954    23961 1
   24978    23954    24004 1
   24979    23955    23956 1
   24980    23955    24005 1
   24981    23955    24006 1
   24982    23956    23957 1
   24983    23956    24007 1
   24984    23956    24008 1
   24985    23957    23958 1
   24986    23957    24009 1
   24987    23957    24010 1
   24988    23958    23959 1
   24989    23958    24011 1
   24990    23958    24012 1
   24991    23959    23960 1
   24992    23959    24013 1
   24993    23959    24014 1
   24994    23960    24015 1
   24995    23960    24016 1
   24996    23960    24017 1
   24997    23961    23962 1
   24998    23961    24018 1
   24999    23961    24019 1
   25000    23962    23963 1
   25001    23962    24020 1
   25002    23962    24021 1
   25003    23963    23964 1
   25004    23963    24022 1
   25005    23963    24023 1
   25006    23964    23965 1
   25007    23964    24024 1
   25008    23964    24025 1
   25009    23965    23966 1
   25010    23965    24026 1
   25011    23965    24027 1
   25012    23966    23967 1
   25013    23966    24028 1
   25014    23966    24029 1
   25015    23967    23968 1
   25016    23967    24030 1
   25017    23967    24031 1
   25018    23968    24032 1
   25019    23968    24033 1
   25020    23968    24034 1
   25021    24035    24036 1
   25022    24035    24042 1
   25023    24035    24074 1
   25024    24036    24037 1
   25025    24036    24040 1
   25026    24037    24038 1
   25027    24037    24041 1
   25028    24038    24039 1
   25029    24039    24040 1
   25030    24039    24050 1
   25031    24040    24046 1
   25032    24041    24042 1
   25033    24041    24045 1
   25034    24042    24043 1
   25035    24043    24044 1
   25036    24043    24047 1
   25037    24044    24045 1
   25038    24048    24049 1
   25039    24048    24056 1
   25040    24049    24050 1
   25041    24049    24057 1
   25042    24050    24051 1
   25043    24051    24052 1
   25044    24051    24055 1
   25045    24052    24053 1
   25046    24053    24054 1
   25047    24054    24055 1
   25048    24055    24056 1
   25049    24056    24166 1
   25050    24058    24059 1
   25051    24058    24091 1
   25052    24058    24092 1
   25053    24058    24093 1
   25054    24059    24060 1
   25055    24059    24094 1
   25056    24059    24095 1
   25057    24060    24061 1
   25058    24060    24096 1
   25059    24060    24097 1
   25060    24061    24062 1
   25061    24061    24098 1
   25062    24061    24099 1
   25063    24062    24063 1
   25064    24062    24100 1
   25065    24062    24101 1
   25066    24063    24064 1
   25067    24063    24102 1
   25068    24063    24103 1
   25069    24064    24065 1
   25070    24064    24104 1
   25071    24064    24105 1
   25072    24065    24066 1
   25073    24065    24106 1
   25074    24065    24107 1
   25075    24066    24067 1
   25076    24066    24073 1
   25077    24066    24108 1
   25078    24067    24068 1
   25079    24067    24109 1
   25080    24067    24110 1
   25081    24068    24069 1
   25082    24068    24111 1
   25083    24068    24112 1
   25084    24069    24070 1
   25085    24069    24113 1
   25086    24069    24114 1
   25087    24070    24071 1
   25088    24070    24115 1
   25089    24070    24116 1
   25090    24071    24072 1
   25091    24071    24117 1
   25092    24071    24118 1
   25093    24072    24119 1
   25094    24072    24120 1
   25095    24072    24121 1
   25096    24073    24074 1
   25097    24073    24122 1
   25098    24073    24123 1
   25099    24074    24075 1
   25100    24075    24076 1
   25101    24075    24124 1
   25102    24075    24125 1
   25103    24076    24077 1
   25104    24076    24083 1
   25105    24076    24126 1
   25106    24077    24078 1
   25107    24077    24127 1
   25108    24077    24128 1
   25109    24078    24079 1
   25110    24078    24129 1
   25111    24078    24130 1
   25112    24079    24080 1
   25113    24079    24131 1
   25114    24079    24132 1
   25115    24080    24081 1
   25116    24080    24133 1
   25117    24080    24134 1
   25118    24081    24082 1
   25119    24081    24135 1
   25120    24081    24136 1
   25121    24082    24137 1
   25122    24082    24138 1
   25123    24082    24139 1
   25124    24083    24084 1
   25125    24083    24140 1
   25126    24083    24141 1
   25127    24084    24085 1
   25128    24084    24142 1
   25129    24084    24143 1
   25130    24085    24086 1
   25131    24085    24144 1
   25132    24085    24145 1
   25133    24086    24087 1
   25134    24086    24146 1
   25135    24086    24147 1
   25136    24087    24088 1
   25137    24087    24148 1
   25138    24087    24149 1
   25139    24088    24089 1
   25140    24088    24150 1
   25141    24088    24151 1
   25142    24089    24090 1
   25143    24089    24152 1
   25144    24089    24153 1
   25145    24090    24154 1
   25146    24090    24155 1
   25147    24090    24156 1
   25148    24157    24158 1
   25149    24157    24164 1
   25150    24157    24196 1
   25151    24158    24159 1
   25152    24158    24162 1
   25153    24159    24160 1
   25154    24159    24163 1
   25155    24160    24161 1
   25156    24161    24162 1
   25157    24161    24172 1
   25158    24162    24168 1
   25159    24163    24164 1
   25160    24163    24167 1
   25161    24164    24165 1
   25162    24165    24166 1
   25163    24165    24169 1
   25164    24166    24167 1
   25165    24170    24171 1
   25166    24170    24178 1
   25167    24171    24172 1
   25168    24171    24179 1
   25169    24172    24173 1
   25170    24173    24174 1
   25171    24173    24177 1
   25172    24174    24175 1
   25173    24175    24176 1
   25174    24176    24177 1
   25175    24177    24178 1
   25176    24178    24288 1
   25177    24180    24181 1
   25178    24180    24213 1
   25179    24180    24214 1
   25180    24180    24215 1
   25181    24181    24182 1
   25182    24181    24216 1
   25183    24181    24217 1
   25184    24182    24183 1
   25185    24182    24218 1
   25186    24182    24219 1
   25187    24183    24184 1
   25188    24183    24220 1
   25189    24183    24221 1
   25190    24184    24185 1
   25191    24184    24222 1
   25192    24184    24223 1
   25193    24185    24186 1
   25194    24185    24224 1
   25195    24185    24225 1
   25196    24186    24187 1
   25197    24186    24226 1
   25198    24186    24227 1
   25199    24187    24188 1
   25200    24187    24228 1
   25201    24187    24229 1
   25202    24188    24189 1
   25203    24188    24195 1
   25204    24188    24230 1
   25205    24189    24190 1
   25206    24189    24231 1
   25207    24189    24232 1
   25208    24190    24191 1
   25209    24190    24233 1
   25210    24190    24234 1
   25211    24191    24192 1
   25212    24191    24235 1
   25213    24191    24236 1
   25214    24192    24193 1
   25215    24192    24237 1
   25216    24192    24238 1
   25217    24193    24194 1
   25218    24193    24239 1
   25219    24193    24240 1
   25220    24194    24241 1
   25221    24194    24242 1
   25222    24194    24243 1
   25223    24195    24196 1
   25224    24195    24244 1
   25225    24195    24245 1
   25226    24196    24197 1
   25227    24197    24198 1
   25228    24197    24246 1
   25229    24197    24247 1
   25230    24198    24199 1
   25231    24198    24205 1
   25232    24198    24248 1
   25233    24199    24200 1
   25234    24199    24249 1
   25235    24199    24250 1
   25236    24200    24201 1
   25237    24200    24251 1
   25238    24200    24252 1
   25239    24201    24202 1
   25240    24201    24253 1
   25241    24201    24254 1
   25242    24202    24203 1
   25243    24202    24255 1
   25244    24202    24256 1
   25245    24203    24204 1
   25246    24203    24257 1
   25247    24203    24258 1
   25248    24204    24259 1
   25249    24204    24260 1
   25250    24204    24261 1
   25251    24205    24206 1
   25252    24205    24262 1
   25253    24205    24263 1
   25254    24206    24207 1
   25255    24206    24264 1
   25256    24206    24265 1
   25257    24207    24208 1
   25258    24207    24266 1
   25259    24207    24267 1
   25260    24208    24209 1
   25261    24208    24268 1
   25262    24208    24269 1
   25263    24209    24210 1
   25264    24209    24270 1
   25265    24209    24271 1
   25266    24210    24211 1
   25267    24210    24272 1
   25268    24210    24273 1
   25269    24211    24212 1
   25270    24211    24274 1
   25271    24211    24275 1
   25272    24212    24276 1
   25273    24212    24277 1
   25274    24212    24278 1
   25275    24279    24280 1
   25276    24279    24286 1
   25277    24279    24318 1
   25278    24280    24281 1
   25279    24280    24284 1
   25280    24281    24282 1
   25281    24281    24285 1
   25282    24282    24283 1
   25283    24283    24284 1
   25284    24283    24294 1
   25285    24284    24290 1
   25286    24285    24286 1
   25287    24285    24289 1
   25288    24286    24287 1
   25289    24287    24288 1
   25290    24287    24291 1
   25291    24288    24289 1
   25292    24292    24293 1
   25293    24292    24300 1
   25294    24293    24294 1
   25295    24293    24301 1
   25296    24294    24295 1
   25297    24295    24296 1
   25298    24295    24299 1
   25299    24296    24297 1
   25300    24297    24298 1
   25301    24298    24299 1
   25302    24299    24300 1
   25303    24300    24410 1
   25304    24302    24303 1
   25305    24302    24335 1
   25306    24302    24336 1
   25307    24302    24337 1
   25308    24303    24304 1
   25309    24303    24338 1
   25310    24303    24339 1
   25311    24304    24305 1
   25312    24304    24340 1
   25313    24304    24341 1
   25314    24305    24306 1
   25315    24305    24342 1
   25316    24305    24343 1
   25317    24306    24307 1
   25318    24306    24344 1
   25319    24306    24345 1
   25320    24307    24308 1
   25321    24307    24346 1
   25322    24307    24347 1
   25323    24308    24309 1
   25324    24308    24348 1
   25325    24308    24349 1
   25326    24309    24310 1
   25327    24309    24350 1
   25328    24309    24351 1
   25329    24310    24311 1
   25330    24310    24317 1
   25331    24310    24352 1
   25332    24311    24312 1
   25333    24311    24353 1
   25334    24311    24354 1
   25335    24312    24313 1
   25336    24312    24355 1
   25337    24312    24356 1
   25338    24313    24314 1
   25339    24313    24357 1
   25340    24313    24358 1
   25341    24314    24315 1
   25342    24314    24359 1
   25343    24314    24360 1
   25344    24315    24316 1
   25345    24315    24361 1
   25346    24315    24362 1
   25347    24316    24363 1
   25348    24316    24364 1
   25349    24316    24365 1
   25350    24317    24318 1
   25351    24317    24366 1
   25352    24317    24367 1
   25353    24318    24319 1
   25354    24319    24320 1
   25355    24319    24368 1
   25356    24319    24369 1
   25357    24320    24321 1
   25358    24320    24327 1
   25359    24320    24370 1
   25360    24321    24322 1
   25361    24321    24371 1
   25362    24321    24372 1
   25363    24322    24323 1
   25364    24322    24373 1
   25365    24322    24374 1
   25366    24323    24324 1
   25367    24323    24375 1
   25368    24323    24376 1
   25369    24324    24325 1
   25370    24324    24377 1
   25371    24324    24378 1
   25372    24325    24326 1
   25373    24325    24379 1
   25374    24325    24380 1
   25375    24326    24381 1
   25376    24326    24382 1
   25377    24326    24383 1
   25378    24327    24328 1
   25379    24327    24384 1
   25380    24327    24385 1
   25381    24328    24329 1
   25382    24328    24386 1
   25383    24328    24387 1
   25384    24329    24330 1
   25385    24329    24388 1
   25386    24329    24389 1
   25387    24330    24331 1
   25388    24330    24390 1
   25389    24330    24391 1
   25390    24331    24332 1
   25391    24331    24392 1
   25392    24331    24393 1
   25393    24332    24333 1
   25394    24332    24394 1
   25395    24332    24395 1
   25396    24333    24334 1
   25397    24333    24396 1
   25398    24333    24397 1
   25399    24334    24398 1
   25400    24334    24399 1
   25401    24334    24400 1
   25402    24401    24402 1
   25403    24401    24408 1
   25404    24401    24440 1
   25405    24402    24403 1
   25406    24402    24406 1
   25407    24403    24404 1
   25408    24403    24407 1
   25409    24404    24405 1
   25410    24405    24406 1
   25411    24405    24416 1
   25412    24406    24412 1
   25413    24407    24408 1
   25414    24407    24411 1
   25415    24408    24409 1
   25416    24409    24410 1
   25417    24409    24413 1
   25418    24410    24411 1
   25419    24414    24415 1
   25420    24414    24422 1
   25421    24415    24416 1
   25422    24415    24423 1
   25423    24416    24417 1
   25424    24417    24418 1
   25425    24417    24421 1
   25426    24418    24419 1
   25427    24419    24420 1
   25428    24420    24421 1
   25429    24421    24422 1
   25430    24422    24532 1
   25431    24424    24425 1
   25432    24424    24457 1
   25433    24424    24458 1
   25434    24424    24459 1
   25435    24425    24426 1
   25436    24425    24460 1
   25437    24425    24461 1
   25438    24426    24427 1
   25439    24426    24462 1
   25440    24426    24463 1
   25441    24427    24428 1
   25442    24427    24464 1
   25443    24427    24465 1
   25444    24428    24429 1
   25445    24428    24466 1
   25446    24428    24467 1
   25447    24429    24430 1
   25448    24429    24468 1
   25449    24429    24469 1
   25450    24430    24431 1
   25451    24430    24470 1
   25452    24430    24471 1
   25453    24431    24432 1
   25454    24431    24472 1
   25455    24431    24473 1
   25456    24432    24433 1
   25457    24432    24439 1
   25458    24432    24474 1
   25459    24433    24434 1
   25460    24433    24475 1
   25461    24433    24476 1
   25462    24434    24435 1
   25463    24434    24477 1
   25464    24434    24478 1
   25465    24435    24436 1
   25466    24435    24479 1
   25467    24435    24480 1
   25468    24436    24437 1
   25469    24436    24481 1
   25470    24436    24482 1
   25471    24437    24438 1
   25472    24437    24483 1
   25473    24437    24484 1
   25474    24438    24485 1
   25475    24438    24486 1
   25476    24438    24487 1
   25477    24439    24440 1
   25478    24439    24488 1
   25479    24439    24489 1
   25480    24440    24441 1
   25481    24441    24442 1
   25482    24441    24490 1
   25483    24441    24491 1
   25484    24442    24443 1
   25485    24442    24449 1
   25486    24442    24492 1
   25487    24443    24444 1
   25488    24443    24493 1
   25489    24443    24494 1
   25490    24444    24445 1
   25491    24444    24495 1
   25492    24444    24496 1
   25493    24445    24446 1
   25494    24445    24497 1
   25495    24445    24498 1
   25496    24446    24447 1
   25497    24446    24499 1
   25498    24446    24500 1
   25499    24447    24448 1
   25500    24447    24501 1
   25501    24447    24502 1
   25502    24448    24503 1
   25503    24448    24504 1
   25504    24448    24505 1
   25505    24449    24450 1
   25506    24449    24506 1
   25507    24449    24507 1
   25508    24450    24451 1
   25509    24450    24508 1
   25510    24450    24509 1
   25511    24451    24452 1
   25512    24451    24510 1
   25513    24451    24511 1
   25514    24452    24453 1
   25515    24452    24512 1
   25516    24452    24513 1
   25517    24453    24454 1
   25518    24453    24514 1
   25519    24453    24515 1
   25520    24454    24455 1
   25521    24454    24516 1
   25522    24454    24517 1
   25523    24455    24456 1
   25524    24455    24518 1
   25525    24455    24519 1
   25526    24456    24520 1
   25527    24456    24521 1
   25528    24456    24522 1
   25529    24523    24524 1
   25530    24523    24530 1
   25531    24523    24562 1
   25532    24524    24525 1
   25533    24524    24528 1
   25534    24525    24526 1
   25535    24525    24529 1
   25536    24526    24527 1
   25537    24527    24528 1
   25538    24527    24538 1
   25539    24528    24534 1
   25540    24529    24530 1
   25541    24529    24533 1
   25542    24530    24531 1
   25543    24531    24532 1
   25544    24531    24535 1
   25545    24532    24533 1
   25546    24536    24537 1
   25547    24536    24544 1
   25548    24537    24538 1
   25549    24537    24545 1
   25550    24538    24539 1
   25551    24539    24540 1
   25552    24539    24543 1
   25553    24540    24541 1
   25554    24541    24542 1
   25555    24542    24543 1
   25556    24543    24544 1
   25557    24544    24654 1
   25558    24546    24547 1
   25559    24546    24579 1
   25560    24546    24580 1
   25561    24546    24581 1
   25562    24547    24548 1
   25563    24547    24582 1
   25564    24547    24583 1
   25565    24548    24549 1
   25566    24548    24584 1
   25567    24548    24585 1
   25568    24549    24550 1
   25569    24549    24586 1
   25570    24549    24587 1
   25571    24550    24551 1
   25572    24550    24588 1
   25573    24550    24589 1
   25574    24551    24552 1
   25575    24551    24590 1
   25576    24551    24591 1
   25577    24552    24553 1
   25578    24552    24592 1
   25579    24552    24593 1
   25580    24553    24554 1
   25581    24553    24594 1
   25582    24553    24595 1
   25583    24554    24555 1
   25584    24554    24561 1
   25585    24554    24596 1
   25586    24555    24556 1
   25587    24555    24597 1
   25588    24555    24598 1
   25589    24556    24557 1
   25590    24556    24599 1
   25591    24556    24600 1
   25592    24557    24558 1
   25593    24557    24601 1
   25594    24557    24602 1
   25595    24558    24559 1
   25596    24558    24603 1
   25597    24558    24604 1
   25598    24559    24560 1
   25599    24559    24605 1
   25600    24559    24606 1
   25601    24560    24607 1
   25602    24560    24608 1
   25603    24560    24609 1
   25604    24561    24562 1
   25605    24561    24610 1
   25606    24561    24611 1
   25607    24562    24563 1
   25608    24563    24564 1
   25609    24563    24612 1
   25610    24563    24613 1
   25611    24564    24565 1
   25612    24564    24571 1
   25613    24564    24614 1
   25614    24565    24566 1
   25615    24565    24615 1
   25616    24565    24616 1
   25617    24566    24567 1
   25618    24566    24617 1
   25619    24566    24618 1
   25620    24567    24568 1
   25621    24567    24619 1
   25622    24567    24620 1
   25623    24568    24569 1
   25624    24568    24621 1
   25625    24568    24622 1
   25626    24569    24570 1
   25627    24569    24623 1
   25628    24569    24624 1
   25629    24570    24625 1
   25630    24570    24626 1
   25631    24570    24627 1
   25632    24571    24572 1
   25633    24571    24628 1
   25634    24571    24629 1
   25635    24572    24573 1
   25636    24572    24630 1
   25637    24572    24631 1
   25638    24573    24574 1
   25639    24573    24632 1
   25640    24573    24633 1
   25641    24574    24575 1
   25642    24574    24634 1
   25643    24574    24635 1
   25644    24575    24576 1
   25645    24575    24636 1
   25646    24575    24637 1
   25647    24576    24577 1
   25648    24576    24638 1
   25649    24576    24639 1
   25650    24577    24578 1
   25651    24577    24640 1
   25652    24577    24641 1
   25653    24578    24642 1
   25654    24578    24643 1
   25655    24578    24644 1
   25656    24645    24646 1
   25657    24645    24652 1
   25658    24645    24684 1
   25659    24646    24647 1
   25660    24646    24650 1
   25661    24647    24648 1
   25662    24647    24651 1
   25663    24648    24649 1
   25664    24649    24650 1
   25665    24649    24660 1
   25666    24650    24656 1
   25667    24651    24652 1
   25668    24651    24655 1
   25669    24652    24653 1
   25670    24653    24654 1
   25671    24653    24657 1
   25672    24654    24655 1
   25673    24658    24659 1
   25674    24658    24666 1
   25675    24659    24660 1
   25676    24659    24667 1
   25677    24660    24661 1
   25678    24661    24662 1
   25679    24661    24665 1
   25680    24662    24663 1
   25681    24663    24664 1
   25682    24664    24665 1
   25683    24665    24666 1
   25684    24666    24776 1
   25685    24668    24669 1
   25686    24668    24701 1
   25687    24668    24702 1
   25688    24668    24703 1
   25689    24669    24670 1
   25690    24669    24704 1
   25691    24669    24705 1
   25692    24670    24671 1
   25693    24670    24706 1
   25694    24670    24707 1
   25695    24671    24672 1
   25696    24671    24708 1
   25697    24671    24709 1
   25698    24672    24673 1
   25699    24672    24710 1
   25700    24672    24711 1
   25701    24673    24674 1
   25702    24673    24712 1
   25703    24673    24713 1
   25704    24674    24675 1
   25705    24674    24714 1
   25706    24674    24715 1
   25707    24675    24676 1
   25708    24675    24716 1
   25709    24675    24717 1
   25710    24676    24677 1
   25711    24676    24683 1
   25712    24676    24718 1
   25713    24677    24678 1
   25714    24677    24719 1
   25715    24677    24720 1
   25716    24678    24679 1
   25717    24678    24721 1
   25718    24678    24722 1
   25719    24679    24680 1
   25720    24679    24723 1
   25721    24679    24724 1
   25722    24680    24681 1
   25723    24680    24725 1
   25724    24680    24726 1
   25725    24681    24682 1
   25726    24681    24727 1
   25727    24681    24728 1
   25728    24682    24729 1
   25729    24682    24730 1
   25730    24682    24731 1
   25731    24683    24684 1
   25732    24683    24732 1
   25733    24683    24733 1
   25734    24684    24685 1
   25735    24685    24686 1
   25736    24685    24734 1
   25737    24685    24735 1
   25738    24686    24687 1
   25739    24686    24693 1
   25740    24686    24736 1
   25741    24687    24688 1
   25742    24687    24737 1
   25743    24687    24738 1
   25744    24688    24689 1
   25745    24688    24739 1
   25746    24688    24740 1
   25747    24689    24690 1
   25748    24689    24741 1
   25749    24689    24742 1
   25750    24690    24691 1
   25751    24690    24743 1
   25752    24690    24744 1
   25753    24691    24692 1
   25754    24691    24745 1
   25755    24691    24746 1
   25756    24692    24747 1
   25757    24692    24748 1
   25758    24692    24749 1
   25759    24693    24694 1
   25760    24693    24750 1
   25761    24693    24751 1
   25762    24694    24695 1
   25763    24694    24752 1
   25764    24694    24753 1
   25765    24695    24696 1
   25766    24695    24754 1
   25767    24695    24755 1
   25768    24696    24697 1
   25769    24696    24756 1
   25770    24696    24757 1
   25771    24697    24698 1
   25772    24697    24758 1
   25773    24697    24759 1
   25774    24698    24699 1
   25775    24698    24760 1
   25776    24698    24761 1
   25777    24699    24700 1
   25778    24699    24762 1
   25779    24699    24763 1
   25780    24700    24764 1
   25781    24700    24765 1
   25782    24700    24766 1
   25783    24767    24768 1
   25784    24767    24774 1
   25785    24767    24806 1
   25786    24768    24769 1
   25787    24768    24772 1
   25788    24769    24770 1
   25789    24769    24773 1
   25790    24770    24771 1
   25791    24771    24772 1
   25792    24771    24782 1
   25793    24772    24778 1
   25794    24773    24774 1
   25795    24773    24777 1
   25796    24774    24775 1
   25797    24775    24776 1
   25798    24775    24779 1
   25799    24776    24777 1
   25800    24780    24781 1
   25801    24780    24788 1
   25802    24781    24782 1
   25803    24781    24789 1
   25804    24782    24783 1
   25805    24783    24784 1
   25806    24783    24787 1
   25807    24784    24785 1
   25808    24785    24786 1
   25809    24786    24787 1
   25810    24787    24788 1
   25811    24788    24898 1
   25812    24790    24791 1
   25813    24790    24823 1
   25814    24790    24824 1
   25815    24790    24825 1
   25816    24791    24792 1
   25817    24791    24826 1
   25818    24791    24827 1
   25819    24792    24793 1
   25820    24792    24828 1
   25821    24792    24829 1
   25822    24793    24794 1
   25823    24793    24830 1
   25824    24793    24831 1
   25825    24794    24795 1
   25826    24794    24832 1
   25827    24794    24833 1
   25828    24795    24796 1
   25829    24795    24834 1
   25830    24795    24835 1
   25831    24796    24797 1
   25832    24796    24836 1
   25833    24796    24837 1
   25834    24797    24798 1
   25835    24797    24838 1
   25836    24797    24839 1
   25837    24798    24799 1
   25838    24798    24805 1
   25839    24798    24840 1
   25840    24799    24800 1
   25841    24799    24841 1
   25842    24799    24842 1
   25843    24800    24801 1
   25844    24800    24843 1
   25845    24800    24844 1
   25846    24801    24802 1
   25847    24801    24845 1
   25848    24801    24846 1
   25849    24802    24803 1
   25850    24802    24847 1
   25851    24802    24848 1
   25852    24803    24804 1
   25853    24803    24849 1
   25854    24803    24850 1
   25855    24804    24851 1
   25856    24804    24852 1
   25857    24804    24853 1
   25858    24805    24806 1
   25859    24805    24854 1
   25860    24805    24855 1
   25861    24806    24807 1
   25862    24807    24808 1
   25863    24807    24856 1
   25864    24807    24857 1
   25865    24808    24809 1
   25866    24808    24815 1
   25867    24808    24858 1
   25868    24809    24810 1
   25869    24809    24859 1
   25870    24809    24860 1
   25871    24810    24811 1
   25872    24810    24861 1
   25873    24810    24862 1
   25874    24811    24812 1
   25875    24811    24863 1
   25876    24811    24864 1
   25877    24812    24813 1
   25878    24812    24865 1
   25879    24812    24866 1
   25880    24813    24814 1
   25881    24813    24867 1
   25882    24813    24868 1
   25883    24814    24869 1
   25884    24814    24870 1
   25885    24814    24871 1
   25886    24815    24816 1
   25887    24815    24872 1
   25888    24815    24873 1
   25889    24816    24817 1
   25890    24816    24874 1
   25891    24816    24875 1
   25892    24817    24818 1
   25893    24817    24876 1
   25894    24817    24877 1
   25895    24818    24819 1
   25896    24818    24878 1
   25897    24818    24879 1
   25898    24819    24820 1
   25899    24819    24880 1
   25900    24819    24881 1
   25901    24820    24821 1
   25902    24820    24882 1
   25903    24820    24883 1
   25904    24821    24822 1
   25905    24821    24884 1
   25906    24821    24885 1
   25907    24822    24886 1
   25908    24822    24887 1
   25909    24822    24888 1
   25910    24889    24890 1
   25911    24889    24896 1
   25912    24889    24928 1
   25913    24890    24891 1
   25914    24890    24894 1
   25915    24891    24892 1
   25916    24891    24895 1
   25917    24892    24893 1
   25918    24893    24894 1
   25919    24893    24904 1
   25920    24894    24900 1
   25921    24895    24896 1
   25922    24895    24899 1
   25923    24896    24897 1
   25924    24897    24898 1
   25925    24897    24901 1
   25926    24898    24899 1
   25927    24902    24903 1
   25928    24902    24910 1
   25929    24903    24904 1
   25930    24903    24911 1
   25931    24904    24905 1
   25932    24905    24906 1
   25933    24905    24909 1
   25934    24906    24907 1
   25935    24907    24908 1
   25936    24908    24909 1
   25937    24909    24910 1
   25938    24910    25020 1
   25939    24912    24913 1
   25940    24912    24945 1
   25941    24912    24946 1
   25942    24912    24947 1
   25943    24913    24914 1
   25944    24913    24948 1
   25945    24913    24949 1
   25946    24914    24915 1
   25947    24914    24950 1
   25948    24914    24951 1
   25949    24915    24916 1
   25950    24915    24952 1
   25951    24915    24953 1
   25952    24916    24917 1
   25953    24916    24954 1
   25954    24916    24955 1
   25955    24917    24918 1
   25956    24917    24956 1
   25957    24917    24957 1
   25958    24918    24919 1
   25959    24918    24958 1
   25960    24918    24959 1
   25961    24919    24920 1
   25962    24919    24960 1
   25963    24919    24961 1
   25964    24920    24921 1
   25965    24920    24927 1
   25966    24920    24962 1
   25967    24921    24922 1
   25968    24921    24963 1
   25969    24921    24964 1
   25970    24922    24923 1
   25971    24922    24965 1
   25972    24922    24966 1
   25973    24923    24924 1
   25974    24923    24967 1
   25975    24923    24968 1
   25976    24924    24925 1
   25977    24924    24969 1
   25978    24924    24970 1
   25979    24925    24926 1
   25980    24925    24971 1
   25981    24925    24972 1
   25982    24926    24973 1
   25983    24926    24974 1
   25984    24926    24975 1
   25985    24927    24928 1
   25986    24927    24976 1
   25987    24927    24977 1
   25988    24928    24929 1
   25989    24929    24930 1
   25990    24929    24978 1
   25991    24929    24979 1
   25992    24930    24931 1
   25993    24930    24937 1
   25994    24930    24980 1
   25995    24931    24932 1
   25996    24931    24981 1
   25997    24931    24982 1
   25998    24932    24933 1
   25999    24932    24983 1
   26000    24932    24984 1
   26001    24933    24934 1
   26002    24933    24985 1
   26003    24933    24986 1
   26004    24934    24935 1
   26005    24934    24987 1
   26006    24934    24988 1
   26007    24935    24936 1
   26008    24935    24989 1
   26009    24935    24990 1
   26010    24936    24991 1
   26011    24936    24992 1
   26012    24936    24993 1
   26013    24937    24938 1
   26014    24937    24994 1
   26015    24937    24995 1
   26016    24938    24939 1
   26017    24938    24996 1
   26018    24938    24997 1
   26019    24939    24940 1
   26020    24939    24998 1
   26021    24939    24999 1
   26022    24940    24941 1
   26023    24940    25000 1
   26024    24940    25001 1
   26025    24941    24942 1
   26026    24941    25002 1
   26027    24941    25003 1
   26028    24942    24943 1
   26029    24942    25004 1
   26030    24942    25005 1
   26031    24943    24944 1
   26032    24943    25006 1
   26033    24943    25007 1
   26034    24944    25008 1
   26035    24944    25009 1
   26036    24944    25010 1
   26037    25011    25012 1
   26038    25011    25018 1
   26039    25011    25050 1
   26040    25012    25013 1
   26041    25012    25016 1
   26042    25013    25014 1
   26043    25013    25017 1
   26044    25014    25015 1
   26045    25015    25016 1
   26046    25015    25026 1
   26047    25016    25022 1
   26048    25017    25018 1
   26049    25017    25021 1
   26050    25018    25019 1
   26051    25019    25020 1
   26052    25019    25023 1
   26053    25020    25021 1
   26054    25024    25025 1
   26055    25024    25032 1
   26056    25025    25026 1
   26057    25025    25033 1
   26058    25026    25027 1
   26059    25027    25028 1
   26060    25027    25031 1
   26061    25028    25029 1
   26062    25029    25030 1
   26063    25030    25031 1
   26064    25031    25032 1
   26065    25032    25142 1
   26066    25034    25035 1
   26067    25034    25067 1
   26068    25034    25068 1
   26069    25034    25069 1
   26070    25035    25036 1
   26071    25035    25070 1
   26072    25035    25071 1
   26073    25036    25037 1
   26074    25036    25072 1
   26075    25036    25073 1
   26076    25037    25038 1
   26077    25037    25074 1
   26078    25037    25075 1
   26079    25038    25039 1
   26080    25038    25076 1
   26081    25038    25077 1
   26082    25039    25040 1
   26083    25039    25078 1
   26084    25039    25079 1
   26085    25040    25041 1
   26086    25040    25080 1
   26087    25040    25081 1
   26088    25041    25042 1
   26089    25041    25082 1
   26090    25041    25083 1
   26091    25042    25043 1
   26092    25042    25049 1
   26093    25042    25084 1
   26094    25043    25044 1
   26095    25043    25085 1
   26096    25043    25086 1
   26097    25044    25045 1
   26098    25044    25087 1
   26099    25044    25088 1
   26100    25045    25046 1
   26101    25045    25089 1
   26102    25045    25090 1
   26103    25046    25047 1
   26104    25046    25091 1
   26105    25046    25092 1
   26106    25047    25048 1
   26107    25047    25093 1
   26108    25047    25094 1
   26109    25048    25095 1
   26110    25048    25096 1
   26111    25048    25097 1
   26112    25049    25050 1
   26113    25049    25098 1
   26114    25049    25099 1
   26115    25050    25051 1
   26116    25051    25052 1
   26117    25051    25100 1
   26118    25051    25101 1
   26119    25052    25053 1
   26120    25052    25059 1
   26121    25052    25102 1
   26122    25053    25054 1
   26123    25053    25103 1
   26124    25053    25104 1
   26125    25054    25055 1
   26126    25054    25105 1
   26127    25054    25106 1
   26128    25055    25056 1
   26129    25055    25107 1
   26130    25055    25108 1
   26131    25056    25057 1
   26132    25056    25109 1
   26133    25056    25110 1
   26134    25057    25058 1
   26135    25057    25111 1
   26136    25057    25112 1
   26137    25058    25113 1
   26138    25058    25114 1
   26139    25058    25115 1
   26140    25059    25060 1
   26141    25059    25116 1
   26142    25059    25117 1
   26143    25060    25061 1
   26144    25060    25118 1
   26145    25060    25119 1
   26146    25061    25062 1
   26147    25061    25120 1
   26148    25061    25121 1
   26149    25062    25063 1
   26150    25062    25122 1
   26151    25062    25123 1
   26152    25063    25064 1
   26153    25063    25124 1
   26154    25063    25125 1
   26155    25064    25065 1
   26156    25064    25126 1
   26157    25064    25127 1
   26158    25065    25066 1
   26159    25065    25128 1
   26160    25065    25129 1
   26161    25066    25130 1
   26162    25066    25131 1
   26163    25066    25132 1
   26164    25133    25134 1
   26165    25133    25140 1
   26166    25133    25172 1
   26167    25134    25135 1
   26168    25134    25138 1
   26169    25135    25136 1
   26170    25135    25139 1
   26171    25136    25137 1
   26172    25137    25138 1
   26173    25137    25148 1
   26174    25138    25144 1
   26175    25139    25140 1
   26176    25139    25143 1
   26177    25140    25141 1
   26178    25141    25142 1
   26179    25141    25145 1
   26180    25142    25143 1
   26181    25146    25147 1
   26182    25146    25154 1
   26183    25147    25148 1
   26184    25147    25155 1
   26185    25148    25149 1
   26186    25149    25150 1
   26187    25149    25153 1
   26188    25150    25151 1
   26189    25151    25152 1
   26190    25152    25153 1
   26191    25153    25154 1
   26192    25154    25264 1
   26193    25156    25157 1
   26194    25156    25189 1
   26195    25156    25190 1
   26196    25156    25191 1
   26197    25157    25158 1
   26198    25157    25192 1
   26199    25157    25193 1
   26200    25158    25159 1
   26201    25158    25194 1
   26202    25158    25195 1
   26203    25159    25160 1
   26204    25159    25196 1
   26205    25159    25197 1
   26206    25160    25161 1
   26207    25160    25198 1
   26208    25160    25199 1
   26209    25161    25162 1
   26210    25161    25200 1
   26211    25161    25201 1
   26212    25162    25163 1
   26213    25162    25202 1
   26214    25162    25203 1
   26215    25163    25164 1
   26216    25163    25204 1
   26217    25163    25205 1
   26218    25164    25165 1
   26219    25164    25171 1
   26220    25164    25206 1
   26221    25165    25166 1
   26222    25165    25207 1
   26223    25165    25208 1
   26224    25166    25167 1
   26225    25166    25209 1
   26226    25166    25210 1
   26227    25167    25168 1
   26228    25167    25211 1
   26229    25167    25212 1
   26230    25168    25169 1
   26231    25168    25213 1
   26232    25168    25214 1
   26233    25169    25170 1
   26234    25169    25215 1
   26235    25169    25216 1
   26236    25170    25217 1
   26237    25170    25218 1
   26238    25170    25219 1
   26239    25171    25172 1
   26240    25171    25220 1
   26241    25171    25221 1
   26242    25172    25173 1
   26243    25173    25174 1
   26244    25173    25222 1
   26245    25173    25223 1
   26246    25174    25175 1
   26247    25174    25181 1
   26248    25174    25224 1
   26249    25175    25176 1
   26250    25175    25225 1
   26251    25175    25226 1
   26252    25176    25177 1
   26253    25176    25227 1
   26254    25176    25228 1
   26255    25177    25178 1
   26256    25177    25229 1
   26257    25177    25230 1
   26258    25178    25179 1
   26259    25178    25231 1
   26260    25178    25232 1
   26261    25179    25180 1
   26262    25179    25233 1
   26263    25179    25234 1
   26264    25180    25235 1
   26265    25180    25236 1
   26266    25180    25237 1
   26267    25181    25182 1
   26268    25181    25238 1
   26269    25181    25239 1
   26270    25182    25183 1
   26271    25182    25240 1
   26272    25182    25241 1
   26273    25183    25184 1
   26274    25183    25242 1
   26275    25183    25243 1
   26276    25184    25185 1
   26277    25184    25244 1
   26278    25184    25245 1
   26279    25185    25186 1
   26280    25185    25246 1
   26281    25185    25247 1
   26282    25186    25187 1
   26283    25186    25248 1
   26284    25186    25249 1
   26285    25187    25188 1
   26286    25187    25250 1
   26287    25187    25251 1
   26288    25188    25252 1
   26289    25188    25253 1
   26290    25188    25254 1
   26291    25255    25256 1
   26292    25255    25262 1
   26293    25255    25294 1
   26294    25256    25257 1
   26295    25256    25260 1
   26296    25257    25258 1
   26297    25257    25261 1
   26298    25258    25259 1
   26299    25259    25260 1
   26300    25259    25270 1
   26301    25260    25266 1
   26302    25261    25262 1
   26303    25261    25265 1
   26304    25262    25263 1
   26305    25263    25264 1
   26306    25263    25267 1
   26307    25264    25265 1
   26308    25268    25269 1
   26309    25268    25276 1
   26310    25269    25270 1
   26311    25269    25277 1
   26312    25270    25271 1
   26313    25271    25272 1
   26314    25271    25275 1
   26315    25272    25273 1
   26316    25273    25274 1
   26317    25274    25275 1
   26318    25275    25276 1
   26319    25276    25386 1
   26320    25278    25279 1
   26321    25278    25311 1
   26322    25278    25312 1
   26323    25278    25313 1
   26324    25279    25280 1
   26325    25279    25314 1
   26326    25279    25315 1
   26327    25280    25281 1
   26328    25280    25316 1
   26329    25280    25317 1
   26330    25281    25282 1
   26331    25281    25318 1
   26332    25281    25319 1
   26333    25282    25283 1
   26334    25282    25320 1
   26335    25282    25321 1
   26336    25283    25284 1
   26337    25283    25322 1
   26338    25283    25323 1
   26339    25284    25285 1
   26340    25284    25324 1
   26341    25284    25325 1
   26342    25285    25286 1
   26343    25285    25326 1
   26344    25285    25327 1
   26345    25286    25287 1
   26346    25286    25293 1
   26347    25286    25328 1
   26348    25287    25288 1
   26349    25287    25329 1
   26350    25287    25330 1
   26351    25288    25289 1
   26352    25288    25331 1
   26353    25288    25332 1
   26354    25289    25290 1
   26355    25289    25333 1
   26356    25289    25334 1
   26357    25290    25291 1
   26358    25290    25335 1
   26359    25290    25336 1
   26360    25291    25292 1
   26361    25291    25337 1
   26362    25291    25338 1
   26363    25292    25339 1
   26364    25292    25340 1
   26365    25292    25341 1
   26366    25293    25294 1
   26367    25293    25342 1
   26368    25293    25343 1
   26369    25294    25295 1
   26370    25295    25296 1
   26371    25295    25344 1
   26372    25295    25345 1
   26373    25296    25297 1
   26374    25296    25303 1
   26375    25296    25346 1
   26376    25297    25298 1
   26377    25297    25347 1
   26378    25297    25348 1
   26379    25298    25299 1
   26380    25298    25349 1
   26381    25298    25350 1
   26382    25299    25300 1
   26383    25299    25351 1
   26384    25299    25352 1
   26385    25300    25301 1
   26386    25300    25353 1
   26387    25300    25354 1
   26388    25301    25302 1
   26389    25301    25355 1
   26390    25301    25356 1
   26391    25302    25357 1
   26392    25302    25358 1
   26393    25302    25359 1
   26394    25303    25304 1
   26395    25303    25360 1
   26396    25303    25361 1
   26397    25304    25305 1
   26398    25304    25362 1
   26399    25304    25363 1
   26400    25305    25306 1
   26401    25305    25364 1
   26402    25305    25365 1
   26403    25306    25307 1
   26404    25306    25366 1
   26405    25306    25367 1
   26406    25307    25308 1
   26407    25307    25368 1
   26408    25307    25369 1
   26409    25308    25309 1
   26410    25308    25370 1
   26411    25308    25371 1
   26412    25309    25310 1
   26413    25309    25372 1
   26414    25309    25373 1
   26415    25310    25374 1
   26416    25310    25375 1
   26417    25310    25376 1
   26418    25377    25378 1
   26419    25377    25384 1
   26420    25377    25416 1
   26421    25378    25379 1
   26422    25378    25382 1
   26423    25379    25380 1
   26424    25379    25383 1
   26425    25380    25381 1
   26426    25381    25382 1
   26427    25381    25392 1
   26428    25382    25388 1
   26429    25383    25384 1
   26430    25383    25387 1
   26431    25384    25385 1
   26432    25385    25386 1
   26433    25385    25389 1
   26434    25386    25387 1
   26435    25390    25391 1
   26436    25390    25398 1
   26437    25391    25392 1
   26438    25391    25399 1
   26439    25392    25393 1
   26440    25393    25394 1
   26441    25393    25397 1
   26442    25394    25395 1
   26443    25395    25396 1
   26444    25396    25397 1
   26445    25397    25398 1
   26446    25398    25508 1
   26447    25400    25401 1
   26448    25400    25433 1
   26449    25400    25434 1
   26450    25400    25435 1
   26451    25401    25402 1
   26452    25401    25436 1
   26453    25401    25437 1
   26454    25402    25403 1
   26455    25402    25438 1
   26456    25402    25439 1
   26457    25403    25404 1
   26458    25403    25440 1
   26459    25403    25441 1
   26460    25404    25405 1
   26461    25404    25442 1
   26462    25404    25443 1
   26463    25405    25406 1
   26464    25405    25444 1
   26465    25405    25445 1
   26466    25406    25407 1
   26467    25406    25446 1
   26468    25406    25447 1
   26469    25407    25408 1
   26470    25407    25448 1
   26471    25407    25449 1
   26472    25408    25409 1
   26473    25408    25415 1
   26474    25408    25450 1
   26475    25409    25410 1
   26476    25409    25451 1
   26477    25409    25452 1
   26478    25410    25411 1
   26479    25410    25453 1
   26480    25410    25454 1
   26481    25411    25412 1
   26482    25411    25455 1
   26483    25411    25456 1
   26484    25412    25413 1
   26485    25412    25457 1
   26486    25412    25458 1
   26487    25413    25414 1
   26488    25413    25459 1
   26489    25413    25460 1
   26490    25414    25461 1
   26491    25414    25462 1
   26492    25414    25463 1
   26493    25415    25416 1
   26494    25415    25464 1
   26495    25415    25465 1
   26496    25416    25417 1
   26497    25417    25418 1
   26498    25417    25466 1
   26499    25417    25467 1
   26500    25418    25419 1
   26501    25418    25425 1
   26502    25418    25468 1
   26503    25419    25420 1
   26504    25419    25469 1
   26505    25419    25470 1
   26506    25420    25421 1
   26507    25420    25471 1
   26508    25420    25472 1
   26509    25421    25422 1
   26510    25421    25473 1
   26511    25421    25474 1
   26512    25422    25423 1
   26513    25422    25475 1
   26514    25422    25476 1
   26515    25423    25424 1
   26516    25423    25477 1
   26517    25423    25478 1
   26518    25424    25479 1
   26519    25424    25480 1
   26520    25424    25481 1
   26521    25425    25426 1
   26522    25425    25482 1
   26523    25425    25483 1
   26524    25426    25427 1
   26525    25426    25484 1
   26526    25426    25485 1
   26527    25427    25428 1
   26528    25427    25486 1
   26529    25427    25487 1
   26530    25428    25429 1
   26531    25428    25488 1
   26532    25428    25489 1
   26533    25429    25430 1
   26534    25429    25490 1
   26535    25429    25491 1
   26536    25430    25431 1
   26537    25430    25492 1
   26538    25430    25493 1
   26539    25431    25432 1
   26540    25431    25494 1
   26541    25431    25495 1
   26542    25432    25496 1
   26543    25432    25497 1
   26544    25432    25498 1
   26545    25499    25500 1
   26546    25499    25506 1
   26547    25499    25538 1
   26548    25500    25501 1
   26549    25500    25504 1
   26550    25501    25502 1
   26551    25501    25505 1
   26552    25502    25503 1
   26553    25503    25504 1
   26554    25503    25514 1
   26555    25504    25510 1
   26556    25505    25506 1
   26557    25505    25509 1
   26558    25506    25507 1
   26559    25507    25508 1
   26560    25507    25511 1
   26561    25508    25509 1
   26562    25512    25513 1
   26563    25512    25520 1
   26564    25513    25514 1
   26565    25513    25521 1
   26566    25514    25515 1
   26567    25515    25516 1
   26568    25515    25519 1
   26569    25516    25517 1
   26570    25517    25518 1
   26571    25518    25519 1
   26572    25519    25520 1
   26573    25520    25630 1
   26574    25522    25523 1
   26575    25522    25555 1
   26576    25522    25556 1
   26577    25522    25557 1
   26578    25523    25524 1
   26579    25523    25558 1
   26580    25523    25559 1
   26581    25524    25525 1
   26582    25524    25560 1
   26583    25524    25561 1
   26584    25525    25526 1
   26585    25525    25562 1
   26586    25525    25563 1
   26587    25526    25527 1
   26588    25526    25564 1
   26589    25526    25565 1
   26590    25527    25528 1
   26591    25527    25566 1
   26592    25527    25567 1
   26593    25528    25529 1
   26594    25528    25568 1
   26595    25528    25569 1
   26596    25529    25530 1
   26597    25529    25570 1
   26598    25529    25571 1
   26599    25530    25531 1
   26600    25530    25537 1
   26601    25530    25572 1
   26602    25531    25532 1
   26603    25531    25573 1
   26604    25531    25574 1
   26605    25532    25533 1
   26606    25532    25575 1
   26607    25532    25576 1
   26608    25533    25534 1
   26609    25533    25577 1
   26610    25533    25578 1
   26611    25534    25535 1
   26612    25534    25579 1
   26613    25534    25580 1
   26614    25535    25536 1
   26615    25535    25581 1
   26616    25535    25582 1
   26617    25536    25583 1
   26618    25536    25584 1
   26619    25536    25585 1
   26620    25537    25538 1
   26621    25537    25586 1
   26622    25537    25587 1
   26623    25538    25539 1
   26624    25539    25540 1
   26625    25539    25588 1
   26626    25539    25589 1
   26627    25540    25541 1
   26628    25540    25547 1
   26629    25540    25590 1
   26630    25541    25542 1
   26631    25541    25591 1
   26632    25541    25592 1
   26633    25542    25543 1
   26634    25542    25593 1
   26635    25542    25594 1
   26636    25543    25544 1
   26637    25543    25595 1
   26638    25543    25596 1
   26639    25544    25545 1
   26640    25544    25597 1
   26641    25544    25598 1
   26642    25545    25546 1
   26643    25545    25599 1
   26644    25545    25600 1
   26645    25546    25601 1
   26646    25546    25602 1
   26647    25546    25603 1
   26648    25547    25548 1
   26649    25547    25604 1
   26650    25547    25605 1
   26651    25548    25549 1
   26652    25548    25606 1
   26653    25548    25607 1
   26654    25549    25550 1
   26655    25549    25608 1
   26656    25549    25609 1
   26657    25550    25551 1
   26658    25550    25610 1
   26659    25550    25611 1
   26660    25551    25552 1
   26661    25551    25612 1
   26662    25551    25613 1
   26663    25552    25553 1
   26664    25552    25614 1
   26665    25552    25615 1
   26666    25553    25554 1
   26667    25553    25616 1
   26668    25553    25617 1
   26669    25554    25618 1
   26670    25554    25619 1
   26671    25554    25620 1
   26672    25621    25622 1
   26673    25621    25628 1
   26674    25621    25660 1
   26675    25622    25623 1
   26676    25622    25626 1
   26677    25623    25624 1
   26678    25623    25627 1
   26679    25624    25625 1
   26680    25625    25626 1
   26681    25625    25636 1
   26682    25626    25632 1
   26683    25627    25628 1
   26684    25627    25631 1
   26685    25628    25629 1
   26686    25629    25630 1
   26687    25629    25633 1
   26688    25630    25631 1
   26689    25634    25635 1
   26690    25634    25642 1
   26691    25635    25636 1
   26692    25635    25643 1
   26693    25636    25637 1
   26694    25637    25638 1
   26695    25637    25641 1
   26696    25638    25639 1
   26697    25639    25640 1
   26698    25640    25641 1
   26699    25641    25642 1
   26700    25642    25752 1
   26701    25644    25645 1
   26702    25644    25677 1
   26703    25644    25678 1
   26704    25644    25679 1
   26705    25645    25646 1
   26706    25645    25680 1
   26707    25645    25681 1
   26708    25646    25647 1
   26709    25646    25682 1
   26710    25646    25683 1
   26711    25647    25648 1
   26712    25647    25684 1
   26713    25647    25685 1
   26714    25648    25649 1
   26715    25648    25686 1
   26716    25648    25687 1
   26717    25649    25650 1
   26718    25649    25688 1
   26719    25649    25689 1
   26720    25650    25651 1
   26721    25650    25690 1
   26722    25650    25691 1
   26723    25651    25652 1
   26724    25651    25692 1
   26725    25651    25693 1
   26726    25652    25653 1
   26727    25652    25659 1
   26728    25652    25694 1
   26729    25653    25654 1
   26730    25653    25695 1
   26731    25653    25696 1
   26732    25654    25655 1
   26733    25654    25697 1
   26734    25654    25698 1
   26735    25655    25656 1
   26736    25655    25699 1
   26737    25655    25700 1
   26738    25656    25657 1
   26739    25656    25701 1
   26740    25656    25702 1
   26741    25657    25658 1
   26742    25657    25703 1
   26743    25657    25704 1
   26744    25658    25705 1
   26745    25658    25706 1
   26746    25658    25707 1
   26747    25659    25660 1
   26748    25659    25708 1
   26749    25659    25709 1
   26750    25660    25661 1
   26751    25661    25662 1
   26752    25661    25710 1
   26753    25661    25711 1
   26754    25662    25663 1
   26755    25662    25669 1
   26756    25662    25712 1
   26757    25663    25664 1
   26758    25663    25713 1
   26759    25663    25714 1
   26760    25664    25665 1
   26761    25664    25715 1
   26762    25664    25716 1
   26763    25665    25666 1
   26764    25665    25717 1
   26765    25665    25718 1
   26766    25666    25667 1
   26767    25666    25719 1
   26768    25666    25720 1
   26769    25667    25668 1
   26770    25667    25721 1
   26771    25667    25722 1
   26772    25668    25723 1
   26773    25668    25724 1
   26774    25668    25725 1
   26775    25669    25670 1
   26776    25669    25726 1
   26777    25669    25727 1
   26778    25670    25671 1
   26779    25670    25728 1
   26780    25670    25729 1
   26781    25671    25672 1
   26782    25671    25730 1
   26783    25671    25731 1
   26784    25672    25673 1
   26785    25672    25732 1
   26786    25672    25733 1
   26787    25673    25674 1
   26788    25673    25734 1
   26789    25673    25735 1
   26790    25674    25675 1
   26791    25674    25736 1
   26792    25674    25737 1
   26793    25675    25676 1
   26794    25675    25738 1
   26795    25675    25739 1
   26796    25676    25740 1
   26797    25676    25741 1
   26798    25676    25742 1
   26799    25743    25744 1
   26800    25743    25750 1
   26801    25743    25782 1
   26802    25744    25745 1
   26803    25744    25748 1
   26804    25745    25746 1
   26805    25745    25749 1
   26806    25746    25747 1
   26807    25747    25748 1
   26808    25747    25758 1
   26809    25748    25754 1
   26810    25749    25750 1
   26811    25749    25753 1
   26812    25750    25751 1
   26813    25751    25752 1
   26814    25751    25755 1
   26815    25752    25753 1
   26816    25756    25757 1
   26817    25756    25764 1
   26818    25757    25758 1
   26819    25757    25765 1
   26820    25758    25759 1
   26821    25759    25760 1
   26822    25759    25763 1
   26823    25760    25761 1
   26824    25761    25762 1
   26825    25762    25763 1
   26826    25763    25764 1
   26827    25764    25874 1
   26828    25766    25767 1
   26829    25766    25799 1
   26830    25766    25800 1
   26831    25766    25801 1
   26832    25767    25768 1
   26833    25767    25802 1
   26834    25767    25803 1
   26835    25768    25769 1
   26836    25768    25804 1
   26837    25768    25805 1
   26838    25769    25770 1
   26839    25769    25806 1
   26840    25769    25807 1
   26841    25770    25771 1
   26842    25770    25808 1
   26843    25770    25809 1
   26844    25771    25772 1
   26845    25771    25810 1
   26846    25771    25811 1
   26847    25772    25773 1
   26848    25772    25812 1
   26849    25772    25813 1
   26850    25773    25774 1
   26851    25773    25814 1
   26852    25773    25815 1
   26853    25774    25775 1
   26854    25774    25781 1
   26855    25774    25816 1
   26856    25775    25776 1
   26857    25775    25817 1
   26858    25775    25818 1
   26859    25776    25777 1
   26860    25776    25819 1
   26861    25776    25820 1
   26862    25777    25778 1
   26863    25777    25821 1
   26864    25777    25822 1
   26865    25778    25779 1
   26866    25778    25823 1
   26867    25778    25824 1
   26868    25779    25780 1
   26869    25779    25825 1
   26870    25779    25826 1
   26871    25780    25827 1
   26872    25780    25828 1
   26873    25780    25829 1
   26874    25781    25782 1
   26875    25781    25830 1
   26876    25781    25831 1
   26877    25782    25783 1
   26878    25783    25784 1
   26879    25783    25832 1
   26880    25783    25833 1
   26881    25784    25785 1
   26882    25784    25791 1
   26883    25784    25834 1
   26884    25785    25786 1
   26885    25785    25835 1
   26886    25785    25836 1
   26887    25786    25787 1
   26888    25786    25837 1
   26889    25786    25838 1
   26890    25787    25788 1
   26891    25787    25839 1
   26892    25787    25840 1
   26893    25788    25789 1
   26894    25788    25841 1
   26895    25788    25842 1
   26896    25789    25790 1
   26897    25789    25843 1
   26898    25789    25844 1
   26899    25790    25845 1
   26900    25790    25846 1
   26901    25790    25847 1
   26902    25791    25792 1
   26903    25791    25848 1
   26904    25791    25849 1
   26905    25792    25793 1
   26906    25792    25850 1
   26907    25792    25851 1
   26908    25793    25794 1
   26909    25793    25852 1
   26910    25793    25853 1
   26911    25794    25795 1
   26912    25794    25854 1
   26913    25794    25855 1
   26914    25795    25796 1
   26915    25795    25856 1
   26916    25795    25857 1
   26917    25796    25797 1
   26918    25796    25858 1
   26919    25796    25859 1
   26920    25797    25798 1
   26921    25797    25860 1
   26922    25797    25861 1
   26923    25798    25862 1
   26924    25798    25863 1
   26925    25798    25864 1
   26926    25865    25866 1
   26927    25865    25872 1
   26928    25865    25904 1
   26929    25866    25867 1
   26930    25866    25870 1
   26931    25867    25868 1
   26932    25867    25871 1
   26933    25868    25869 1
   26934    25869    25870 1
   26935    25869    25880 1
   26936    25870    25876 1
   26937    25871    25872 1
   26938    25871    25875 1
   26939    25872    25873 1
   26940    25873    25874 1
   26941    25873    25877 1
   26942    25874    25875 1
   26943    25878    25879 1
   26944    25878    25886 1
   26945    25879    25880 1
   26946    25879    25887 1
   26947    25880    25881 1
   26948    25881    25882 1
   26949    25881    25885 1
   26950    25882    25883 1
   26951    25883    25884 1
   26952    25884    25885 1
   26953    25885    25886 1
   26954    25886    25996 1
   26955    25888    25889 1
   26956    25888    25921 1
   26957    25888    25922 1
   26958    25888    25923 1
   26959    25889    25890 1
   26960    25889    25924 1
   26961    25889    25925 1
   26962    25890    25891 1
   26963    25890    25926 1
   26964    25890    25927 1
   26965    25891    25892 1
   26966    25891    25928 1
   26967    25891    25929 1
   26968    25892    25893 1
   26969    25892    25930 1
   26970    25892    25931 1
   26971    25893    25894 1
   26972    25893    25932 1
   26973    25893    25933 1
   26974    25894    25895 1
   26975    25894    25934 1
   26976    25894    25935 1
   26977    25895    25896 1
   26978    25895    25936 1
   26979    25895    25937 1
   26980    25896    25897 1
   26981    25896    25903 1
   26982    25896    25938 1
   26983    25897    25898 1
   26984    25897    25939 1
   26985    25897    25940 1
   26986    25898    25899 1
   26987    25898    25941 1
   26988    25898    25942 1
   26989    25899    25900 1
   26990    25899    25943 1
   26991    25899    25944 1
   26992    25900    25901 1
   26993    25900    25945 1
   26994    25900    25946 1
   26995    25901    25902 1
   26996    25901    25947 1
   26997    25901    25948 1
   26998    25902    25949 1
   26999    25902    25950 1
   27000    25902    25951 1
   27001    25903    25904 1
   27002    25903    25952 1
   27003    25903    25953 1
   27004    25904    25905 1
   27005    25905    25906 1
   27006    25905    25954 1
   27007    25905    25955 1
   27008    25906    25907 1
   27009    25906    25913 1
   27010    25906    25956 1
   27011    25907    25908 1
   27012    25907    25957 1
   27013    25907    25958 1
   27014    25908    25909 1
   27015    25908    25959 1
   27016    25908    25960 1
   27017    25909    25910 1
   27018    25909    25961 1
   27019    25909    25962 1
   27020    25910    25911 1
   27021    25910    25963 1
   27022    25910    25964 1
   27023    25911    25912 1
   27024    25911    25965 1
   27025    25911    25966 1
   27026    25912    25967 1
   27027    25912    25968 1
   27028    25912    25969 1
   27029    25913    25914 1
   27030    25913    25970 1
   27031    25913    25971 1
   27032    25914    25915 1
   27033    25914    25972 1
   27034    25914    25973 1
   27035    25915    25916 1
   27036    25915    25974 1
   27037    25915    25975 1
   27038    25916    25917 1
   27039    25916    25976 1
   27040    25916    25977 1
   27041    25917    25918 1
   27042    25917    25978 1
   27043    25917    25979 1
   27044    25918    25919 1
   27045    25918    25980 1
   27046    25918    25981 1
   27047    25919    25920 1
   27048    25919    25982 1
   27049    25919    25983 1
   27050    25920    25984 1
   27051    25920    25985 1
   27052    25920    25986 1
   27053    25987    25988 1
   27054    25987    25994 1
   27055    25987    26026 1
   27056    25988    25989 1
   27057    25988    25992 1
   27058    25989    25990 1
   27059    25989    25993 1
   27060    25990    25991 1
   27061    25991    25992 1
   27062    25991    26002 1
   27063    25992    25998 1
   27064    25993    25994 1
   27065    25993    25997 1
   27066    25994    25995 1
   27067    25995    25996 1
   27068    25995    25999 1
   27069    25996    25997 1
   27070    26000    26001 1
   27071    26000    26008 1
   27072    26001    26002 1
   27073    26001    26009 1
   27074    26002    26003 1
   27075    26003    26004 1
   27076    26003    26007 1
   27077    26004    26005 1
   27078    26005    26006 1
   27079    26006    26007 1
   27080    26007    26008 1
   27081    26008    26118 1
   27082    26010    26011 1
   27083    26010    26043 1
   27084    26010    26044 1
   27085    26010    26045 1
   27086    26011    26012 1
   27087    26011    26046 1
   27088    26011    26047 1
   27089    26012    26013 1
   27090    26012    26048 1
   27091    26012    26049 1
   27092    26013    26014 1
   27093    26013    26050 1
   27094    26013    26051 1
   27095    26014    26015 1
   27096    26014    26052 1
   27097    26014    26053 1
   27098    26015    26016 1
   27099    26015    26054 1
   27100    26015    26055 1
   27101    26016    26017 1
   27102    26016    26056 1
   27103    26016    26057 1
   27104    26017    26018 1
   27105    26017    26058 1
   27106    26017    26059 1
   27107    26018    26019 1
   27108    26018    26025 1
   27109    26018    26060 1
   27110    26019    26020 1
   27111    26019    26061 1
   27112    26019    26062 1
   27113    26020    26021 1
   27114    26020    26063 1
   27115    26020    26064 1
   27116    26021    26022 1
   27117    26021    26065 1
   27118    26021    26066 1
   27119    26022    26023 1
   27120    26022    26067 1
   27121    26022    26068 1
   27122    26023    26024 1
   27123    26023    26069 1
   27124    26023    26070 1
   27125    26024    26071 1
   27126    26024    26072 1
   27127    26024    26073 1
   27128    26025    26026 1
   27129    26025    26074 1
   27130    26025    26075 1
   27131    26026    26027 1
   27132    26027    26028 1
   27133    26027    26076 1
   27134    26027    26077 1
   27135    26028    26029 1
   27136    26028    26035 1
   27137    26028    26078 1
   27138    26029    26030 1
   27139    26029    26079 1
   27140    26029    26080 1
   27141    26030    26031 1
   27142    26030    26081 1
   27143    26030    26082 1
   27144    26031    26032 1
   27145    26031    26083 1
   27146    26031    26084 1
   27147    26032    26033 1
   27148    26032    26085 1
   27149    26032    26086 1
   27150    26033    26034 1
   27151    26033    26087 1
   27152    26033    26088 1
   27153    26034    26089 1
   27154    26034    26090 1
   27155    26034    26091 1
   27156    26035    26036 1
   27157    26035    26092 1
   27158    26035    26093 1
   27159    26036    26037 1
   27160    26036    26094 1
   27161    26036    26095 1
   27162    26037    26038 1
   27163    26037    26096 1
   27164    26037    26097 1
   27165    26038    26039 1
   27166    26038    26098 1
   27167    26038    26099 1
   27168    26039    26040 1
   27169    26039    26100 1
   27170    26039    26101 1
   27171    26040    26041 1
   27172    26040    26102 1
   27173    26040    26103 1
   27174    26041    26042 1
   27175    26041    26104 1
   27176    26041    26105 1
   27177    26042    26106 1
   27178    26042    26107 1
   27179    26042    26108 1
   27180    26109    26110 1
   27181    26109    26116 1
   27182    26109    26148 1
   27183    26110    26111 1
   27184    26110    26114 1
   27185    26111    26112 1
   27186    26111    26115 1
   27187    26112    26113 1
   27188    26113    26114 1
   27189    26113    26124 1
   27190    26114    26120 1
   27191    26115    26116 1
   27192    26115    26119 1
   27193    26116    26117 1
   27194    26117    26118 1
   27195    26117    26121 1
   27196    26118    26119 1
   27197    26122    26123 1
   27198    26122    26130 1
   27199    26123    26124 1
   27200    26123    26131 1
   27201    26124    26125 1
   27202    26125    26126 1
   27203    26125    26129 1
   27204    26126    26127 1
   27205    26127    26128 1
   27206    26128    26129 1
   27207    26129    26130 1
   27208    26130    26240 1
   27209    26132    26133 1
   27210    26132    26165 1
   27211    26132    26166 1
   27212    26132    26167 1
   27213    26133    26134 1
   27214    26133    26168 1
   27215    26133    26169 1
   27216    26134    26135 1
   27217    26134    26170 1
   27218    26134    26171 1
   27219    26135    26136 1
   27220    26135    26172 1
   27221    26135    26173 1
   27222    26136    26137 1
   27223    26136    26174 1
   27224    26136    26175 1
   27225    26137    26138 1
   27226    26137    26176 1
   27227    26137    26177 1
   27228    26138    26139 1
   27229    26138    26178 1
   27230    26138    26179 1
   27231    26139    26140 1
   27232    26139    26180 1
   27233    26139    26181 1
   27234    26140    26141 1
   27235    26140    26147 1
   27236    26140    26182 1
   27237    26141    26142 1
   27238    26141    26183 1
   27239    26141    26184 1
   27240    26142    26143 1
   27241    26142    26185 1
   27242    26142    26186 1
   27243    26143    26144 1
   27244    26143    26187 1
   27245    26143    26188 1
   27246    26144    26145 1
   27247    26144    26189 1
   27248    26144    26190 1
   27249    26145    26146 1
   27250    26145    26191 1
   27251    26145    26192 1
   27252    26146    26193 1
   27253    26146    26194 1
   27254    26146    26195 1
   27255    26147    26148 1
   27256    26147    26196 1
   27257    26147    26197 1
   27258    26148    26149 1
   27259    26149    26150 1
   27260    26149    26198 1
   27261    26149    26199 1
   27262    26150    26151 1
   27263    26150    26157 1
   27264    26150    26200 1
   27265    26151    26152 1
   27266    26151    26201 1
   27267    26151    26202 1
   27268    26152    26153 1
   27269    26152    26203 1
   27270    26152    26204 1
   27271    26153    26154 1
   27272    26153    26205 1
   27273    26153    26206 1
   27274    26154    26155 1
   27275    26154    26207 1
   27276    26154    26208 1
   27277    26155    26156 1
   27278    26155    26209 1
   27279    26155    26210 1
   27280    26156    26211 1
   27281    26156    26212 1
   27282    26156    26213 1
   27283    26157    26158 1
   27284    26157    26214 1
   27285    26157    26215 1
   27286    26158    26159 1
   27287    26158    26216 1
   27288    26158    26217 1
   27289    26159    26160 1
   27290    26159    26218 1
   27291    26159    26219 1
   27292    26160    26161 1
   27293    26160    26220 1
   27294    26160    26221 1
   27295    26161    26162 1
   27296    26161    26222 1
   27297    26161    26223 1
   27298    26162    26163 1
   27299    26162    26224 1
   27300    26162    26225 1
   27301    26163    26164 1
   27302    26163    26226 1
   27303    26163    26227 1
   27304    26164    26228 1
   27305    26164    26229 1
   27306    26164    26230 1
   27307    26231    26232 1
   27308    26231    26238 1
   27309    26231    26270 1
   27310    26232    26233 1
   27311    26232    26236 1
   27312    26233    26234 1
   27313    26233    26237 1
   27314    26234    26235 1
   27315    26235    26236 1
   27316    26235    26246 1
   27317    26236    26242 1
   27318    26237    26238 1
   27319    26237    26241 1
   27320    26238    26239 1
   27321    26239    26240 1
   27322    26239    26243 1
   27323    26240    26241 1
   27324    26244    26245 1
   27325    26244    26252 1
   27326    26245    26246 1
   27327    26245    26253 1
   27328    26246    26247 1
   27329    26247    26248 1
   27330    26247    26251 1
   27331    26248    26249 1
   27332    26249    26250 1
   27333    26250    26251 1
   27334    26251    26252 1
   27335    26252    26362 1
   27336    26254    26255 1
   27337    26254    26287 1
   27338    26254    26288 1
   27339    26254    26289 1
   27340    26255    26256 1
   27341    26255    26290 1
   27342    26255    26291 1
   27343    26256    26257 1
   27344    26256    26292 1
   27345    26256    26293 1
   27346    26257    26258 1
   27347    26257    26294 1
   27348    26257    26295 1
   27349    26258    26259 1
   27350    26258    26296 1
   27351    26258    26297 1
   27352    26259    26260 1
   27353    26259    26298 1
   27354    26259    26299 1
   27355    26260    26261 1
   27356    26260    26300 1
   27357    26260    26301 1
   27358    26261    26262 1
   27359    26261    26302 1
   27360    26261    26303 1
   27361    26262    26263 1
   27362    26262    26269 1
   27363    26262    26304 1
   27364    26263    26264 1
   27365    26263    26305 1
   27366    26263    26306 1
   27367    26264    26265 1
   27368    26264    26307 1
   27369    26264    26308 1
   27370    26265    26266 1
   27371    26265    26309 1
   27372    26265    26310 1
   27373    26266    26267 1
   27374    26266    26311 1
   27375    26266    26312 1
   27376    26267    26268 1
   27377    26267    26313 1
   27378    26267    26314 1
   27379    26268    26315 1
   27380    26268    26316 1
   27381    26268    26317 1
   27382    26269    26270 1
   27383    26269    26318 1
   27384    26269    26319 1
   27385    26270    26271 1
   27386    26271    26272 1
   27387    26271    26320 1
   27388    26271    26321 1
   27389    26272    26273 1
   27390    26272    26279 1
   27391    26272    26322 1
   27392    26273    26274 1
   27393    26273    26323 1
   27394    26273    26324 1
   27395    26274    26275 1
   27396    26274    26325 1
   27397    26274    26326 1
   27398    26275    26276 1
   27399    26275    26327 1
   27400    26275    26328 1
   27401    26276    26277 1
   27402    26276    26329 1
   27403    26276    26330 1
   27404    26277    26278 1
   27405    26277    26331 1
   27406    26277    26332 1
   27407    26278    26333 1
   27408    26278    26334 1
   27409    26278    26335 1
   27410    26279    26280 1
   27411    26279    26336 1
   27412    26279    26337 1
   27413    26280    26281 1
   27414    26280    26338 1
   27415    26280    26339 1
   27416    26281    26282 1
   27417    26281    26340 1
   27418    26281    26341 1
   27419    26282    26283 1
   27420    26282    26342 1
   27421    26282    26343 1
   27422    26283    26284 1
   27423    26283    26344 1
   27424    26283    26345 1
   27425    26284    26285 1
   27426    26284    26346 1
   27427    26284    26347 1
   27428    26285    26286 1
   27429    26285    26348 1
   27430    26285    26349 1
   27431    26286    26350 1
   27432    26286    26351 1
   27433    26286    26352 1
   27434    26353    26354 1
   27435    26353    26360 1
   27436    26353    26392 1
   27437    26354    26355 1
   27438    26354    26358 1
   27439    26355    26356 1
   27440    26355    26359 1
   27441    26356    26357 1
   27442    26357    26358 1
   27443    26357    26368 1
   27444    26358    26364 1
   27445    26359    26360 1
   27446    26359    26363 1
   27447    26360    26361 1
   27448    26361    26362 1
   27449    26361    26365 1
   27450    26362    26363 1
   27451    26366    26367 1
   27452    26366    26374 1
   27453    26367    26368 1
   27454    26367    26375 1
   27455    26368    26369 1
   27456    26369    26370 1
   27457    26369    26373 1
   27458    26370    26371 1
   27459    26371    26372 1
   27460    26372    26373 1
   27461    26373    26374 1
   27462    26374    26484 1
   27463    26376    26377 1
   27464    26376    26409 1
   27465    26376    26410 1
   27466    26376    26411 1
   27467    26377    26378 1
   27468    26377    26412 1
   27469    26377    26413 1
   27470    26378    26379 1
   27471    26378    26414 1
   27472    26378    26415 1
   27473    26379    26380 1
   27474    26379    26416 1
   27475    26379    26417 1
   27476    26380    26381 1
   27477    26380    26418 1
   27478    26380    26419 1
   27479    26381    26382 1
   27480    26381    26420 1
   27481    26381    26421 1
   27482    26382    26383 1
   27483    26382    26422 1
   27484    26382    26423 1
   27485    26383    26384 1
   27486    26383    26424 1
   27487    26383    26425 1
   27488    26384    26385 1
   27489    26384    26391 1
   27490    26384    26426 1
   27491    26385    26386 1
   27492    26385    26427 1
   27493    26385    26428 1
   27494    26386    26387 1
   27495    26386    26429 1
   27496    26386    26430 1
   27497    26387    26388 1
   27498    26387    26431 1
   27499    26387    26432 1
   27500    26388    26389 1
   27501    26388    26433 1
   27502    26388    26434 1
   27503    26389    26390 1
   27504    26389    26435 1
   27505    26389    26436 1
   27506    26390    26437 1
   27507    26390    26438 1
   27508    26390    26439 1
   27509    26391    26392 1
   27510    26391    26440 1
   27511    26391    26441 1
   27512    26392    26393 1
   27513    26393    26394 1
   27514    26393    26442 1
   27515    26393    26443 1
   27516    26394    26395 1
   27517    26394    26401 1
   27518    26394    26444 1
   27519    26395    26396 1
   27520    26395    26445 1
   27521    26395    26446 1
   27522    26396    26397 1
   27523    26396    26447 1
   27524    26396    26448 1
   27525    26397    26398 1
   27526    26397    26449 1
   27527    26397    26450 1
   27528    26398    26399 1
   27529    26398    26451 1
   27530    26398    26452 1
   27531    26399    26400 1
   27532    26399    26453 1
   27533    26399    26454 1
   27534    26400    26455 1
   27535    26400    26456 1
   27536    26400    26457 1
   27537    26401    26402 1
   27538    26401    26458 1
   27539    26401    26459 1
   27540    26402    26403 1
   27541    26402    26460 1
   27542    26402    26461 1
   27543    26403    26404 1
   27544    26403    26462 1
   27545    26403    26463 1
   27546    26404    26405 1
   27547    26404    26464 1
   27548    26404    26465 1
   27549    26405    26406 1
   27550    26405    26466 1
   27551    26405    26467 1
   27552    26406    26407 1
   27553    26406    26468 1
   27554    26406    26469 1
   27555    26407    26408 1
   27556    26407    26470 1
   27557    26407    26471 1
   27558    26408    26472 1
   27559    26408    26473 1
   27560    26408    26474 1
   27561    26475    26476 1
   27562    26475    26482 1
   27563    26475    26514 1
   27564    26476    26477 1
   27565    26476    26480 1
   27566    26477    26478 1
   27567    26477    26481 1
   27568    26478    26479 1
   27569    26479    26480 1
   27570    26479    26490 1
   27571    26480    26486 1
   27572    26481    26482 1
   27573    26481    26485 1
   27574    26482    26483 1
   27575    26483    26484 1
   27576    26483    26487 1
   27577    26484    26485 1
   27578    26488    26489 1
   27579    26488    26496 1
   27580    26489    26490 1
   27581    26489    26497 1
   27582    26490    26491 1
   27583    26491    26492 1
   27584    26491    26495 1
   27585    26492    26493 1
   27586    26493    26494 1
   27587    26494    26495 1
   27588    26495    26496 1
   27589    26496    26606 1
   27590    26498    26499 1
   27591    26498    26531 1
   27592    26498    26532 1
   27593    26498    26533 1
   27594    26499    26500 1
   27595    26499    26534 1
   27596    26499    26535 1
   27597    26500    26501 1
   27598    26500    26536 1
   27599    26500    26537 1
   27600    26501    26502 1
   27601    26501    26538 1
   27602    26501    26539 1
   27603    26502    26503 1
   27604    26502    26540 1
   27605    26502    26541 1
   27606    26503    26504 1
   27607    26503    26542 1
   27608    26503    26543 1
   27609    26504    26505 1
   27610    26504    26544 1
   27611    26504    26545 1
   27612    26505    26506 1
   27613    26505    26546 1
   27614    26505    26547 1
   27615    26506    26507 1
   27616    26506    26513 1
   27617    26506    26548 1
   27618    26507    26508 1
   27619    26507    26549 1
   27620    26507    26550 1
   27621    26508    26509 1
   27622    26508    26551 1
   27623    26508    26552 1
   27624    26509    26510 1
   27625    26509    26553 1
   27626    26509    26554 1
   27627    26510    26511 1
   27628    26510    26555 1
   27629    26510    26556 1
   27630    26511    26512 1
   27631    26511    26557 1
   27632    26511    26558 1
   27633    26512    26559 1
   27634    26512    26560 1
   27635    26512    26561 1
   27636    26513    26514 1
   27637    26513    26562 1
   27638    26513    26563 1
   27639    26514    26515 1
   27640    26515    26516 1
   27641    26515    26564 1
   27642    26515    26565 1
   27643    26516    26517 1
   27644    26516    26523 1
   27645    26516    26566 1
   27646    26517    26518 1
   27647    26517    26567 1
   27648    26517    26568 1
   27649    26518    26519 1
   27650    26518    26569 1
   27651    26518    26570 1
   27652    26519    26520 1
   27653    26519    26571 1
   27654    26519    26572 1
   27655    26520    26521 1
   27656    26520    26573 1
   27657    26520    26574 1
   27658    26521    26522 1
   27659    26521    26575 1
   27660    26521    26576 1
   27661    26522    26577 1
   27662    26522    26578 1
   27663    26522    26579 1
   27664    26523    26524 1
   27665    26523    26580 1
   27666    26523    26581 1
   27667    26524    26525 1
   27668    26524    26582 1
   27669    26524    26583 1
   27670    26525    26526 1
   27671    26525    26584 1
   27672    26525    26585 1
   27673    26526    26527 1
   27674    26526    26586 1
   27675    26526    26587 1
   27676    26527    26528 1
   27677    26527    26588 1
   27678    26527    26589 1
   27679    26528    26529 1
   27680    26528    26590 1
   27681    26528    26591 1
   27682    26529    26530 1
   27683    26529    26592 1
   27684    26529    26593 1
   27685    26530    26594 1
   27686    26530    26595 1
   27687    26530    26596 1
   27688    26597    26598 1
   27689    26597    26604 1
   27690    26597    26636 1
   27691    26598    26599 1
   27692    26598    26602 1
   27693    26599    26600 1
   27694    26599    26603 1
   27695    26600    26601 1
   27696    26601    26602 1
   27697    26601    26612 1
   27698    26602    26608 1
   27699    26603    26604 1
   27700    26603    26607 1
   27701    26604    26605 1
   27702    26605    26606 1
   27703    26605    26609 1
   27704    26606    26607 1
   27705    26610    26611 1
   27706    26610    26618 1
   27707    26611    26612 1
   27708    26611    26619 1
   27709    26612    26613 1
   27710    26613    26614 1
   27711    26613    26617 1
   27712    26614    26615 1
   27713    26615    26616 1
   27714    26616    26617 1
   27715    26617    26618 1
   27716    26618    26728 1
   27717    26620    26621 1
   27718    26620    26653 1
   27719    26620    26654 1
   27720    26620    26655 1
   27721    26621    26622 1
   27722    26621    26656 1
   27723    26621    26657 1
   27724    26622    26623 1
   27725    26622    26658 1
   27726    26622    26659 1
   27727    26623    26624 1
   27728    26623    26660 1
   27729    26623    26661 1
   27730    26624    26625 1
   27731    26624    26662 1
   27732    26624    26663 1
   27733    26625    26626 1
   27734    26625    26664 1
   27735    26625    26665 1
   27736    26626    26627 1
   27737    26626    26666 1
   27738    26626    26667 1
   27739    26627    26628 1
   27740    26627    26668 1
   27741    26627    26669 1
   27742    26628    26629 1
   27743    26628    26635 1
   27744    26628    26670 1
   27745    26629    26630 1
   27746    26629    26671 1
   27747    26629    26672 1
   27748    26630    26631 1
   27749    26630    26673 1
   27750    26630    26674 1
   27751    26631    26632 1
   27752    26631    26675 1
   27753    26631    26676 1
   27754    26632    26633 1
   27755    26632    26677 1
   27756    26632    26678 1
   27757    26633    26634 1
   27758    26633    26679 1
   27759    26633    26680 1
   27760    26634    26681 1
   27761    26634    26682 1
   27762    26634    26683 1
   27763    26635    26636 1
   27764    26635    26684 1
   27765    26635    26685 1
   27766    26636    26637 1
   27767    26637    26638 1
   27768    26637    26686 1
   27769    26637    26687 1
   27770    26638    26639 1
   27771    26638    26645 1
   27772    26638    26688 1
   27773    26639    26640 1
   27774    26639    26689 1
   27775    26639    26690 1
   27776    26640    26641 1
   27777    26640    26691 1
   27778    26640    26692 1
   27779    26641    26642 1
   27780    26641    26693 1
   27781    26641    26694 1
   27782    26642    26643 1
   27783    26642    26695 1
   27784    26642    26696 1
   27785    26643    26644 1
   27786    26643    26697 1
   27787    26643    26698 1
   27788    26644    26699 1
   27789    26644    26700 1
   27790    26644    26701 1
   27791    26645    26646 1
   27792    26645    26702 1
   27793    26645    26703 1
   27794    26646    26647 1
   27795    26646    26704 1
   27796    26646    26705 1
   27797    26647    26648 1
   27798    26647    26706 1
   27799    26647    26707 1
   27800    26648    26649 1
   27801    26648    26708 1
   27802    26648    26709 1
   27803    26649    26650 1
   27804    26649    26710 1
   27805    26649    26711 1
   27806    26650    26651 1
   27807    26650    26712 1
   27808    26650    26713 1
   27809    26651    26652 1
   27810    26651    26714 1
   27811    26651    26715 1
   27812    26652    26716 1
   27813    26652    26717 1
   27814    26652    26718 1
   27815    26719    26720 1
   27816    26719    26726 1
   27817    26719    26758 1
   27818    26720    26721 1
   27819    26720    26724 1
   27820    26721    26722 1
   27821    26721    26725 1
   27822    26722    26723 1
   27823    26723    26724 1
   27824    26723    26734 1
   27825    26724    26730 1
   27826    26725    26726 1
   27827    26725    26729 1
   27828    26726    26727 1
   27829    26727    26728 1
   27830    26727    26731 1
   27831    26728    26729 1
   27832    26732    26733 1
   27833    26732    26740 1
   27834    26733    26734 1
   27835    26733    26741 1
   27836    26734    26735 1
   27837    26735    26736 1
   27838    26735    26739 1
   27839    26736    26737 1
   27840    26737    26738 1
   27841    26738    26739 1
   27842    26739    26740 1
   27843    26740    26850 1
   27844    26742    26743 1
   27845    26742    26775 1
   27846    26742    26776 1
   27847    26742    26777 1
   27848    26743    26744 1
   27849    26743    26778 1
   27850    26743    26779 1
   27851    26744    26745 1
   27852    26744    26780 1
   27853    26744    26781 1
   27854    26745    26746 1
   27855    26745    26782 1
   27856    26745    26783 1
   27857    26746    26747 1
   27858    26746    26784 1
   27859    26746    26785 1
   27860    26747    26748 1
   27861    26747    26786 1
   27862    26747    26787 1
   27863    26748    26749 1
   27864    26748    26788 1
   27865    26748    26789 1
   27866    26749    26750 1
   27867    26749    26790 1
   27868    26749    26791 1
   27869    26750    26751 1
   27870    26750    26757 1
   27871    26750    26792 1
   27872    26751    26752 1
   27873    26751    26793 1
   27874    26751    26794 1
   27875    26752    26753 1
   27876    26752    26795 1
   27877    26752    26796 1
   27878    26753    26754 1
   27879    26753    26797 1
   27880    26753    26798 1
   27881    26754    26755 1
   27882    26754    26799 1
   27883    26754    26800 1
   27884    26755    26756 1
   27885    26755    26801 1
   27886    26755    26802 1
   27887    26756    26803 1
   27888    26756    26804 1
   27889    26756    26805 1
   27890    26757    26758 1
   27891    26757    26806 1
   27892    26757    26807 1
   27893    26758    26759 1
   27894    26759    26760 1
   27895    26759    26808 1
   27896    26759    26809 1
   27897    26760    26761 1
   27898    26760    26767 1
   27899    26760    26810 1
   27900    26761    26762 1
   27901    26761    26811 1
   27902    26761    26812 1
   27903    26762    26763 1
   27904    26762    26813 1
   27905    26762    26814 1
   27906    26763    26764 1
   27907    26763    26815 1
   27908    26763    26816 1
   27909    26764    26765 1
   27910    26764    26817 1
   27911    26764    26818 1
   27912    26765    26766 1
   27913    26765    26819 1
   27914    26765    26820 1
   27915    26766    26821 1
   27916    26766    26822 1
   27917    26766    26823 1
   27918    26767    26768 1
   27919    26767    26824 1
   27920    26767    26825 1
   27921    26768    26769 1
   27922    26768    26826 1
   27923    26768    26827 1
   27924    26769    26770 1
   27925    26769    26828 1
   27926    26769    26829 1
   27927    26770    26771 1
   27928    26770    26830 1
   27929    26770    26831 1
   27930    26771    26772 1
   27931    26771    26832 1
   27932    26771    26833 1
   27933    26772    26773 1
   27934    26772    26834 1
   27935    26772    26835 1
   27936    26773    26774 1
   27937    26773    26836 1
   27938    26773    26837 1
   27939    26774    26838 1
   27940    26774    26839 1
   27941    26774    26840 1
   27942    26841    26842 1
   27943    26841    26848 1
   27944    26841    26880 1
   27945    26842    26843 1
   27946    26842    26846 1
   27947    26843    26844 1
   27948    26843    26847 1
   27949    26844    26845 1
   27950    26845    26846 1
   27951    26845    26856 1
   27952    26846    26852 1
   27953    26847    26848 1
   27954    26847    26851 1
   27955    26848    26849 1
   27956    26849    26850 1
   27957    26849    26853 1
   27958    26850    26851 1
   27959    26854    26855 1
   27960    26854    26862 1
   27961    26855    26856 1
   27962    26855    26863 1
   27963    26856    26857 1
   27964    26857    26858 1
   27965    26857    26861 1
   27966    26858    26859 1
   27967    26859    26860 1
   27968    26860    26861 1
   27969    26861    26862 1
   27970    26862    26972 1
   27971    26864    26865 1
   27972    26864    26897 1
   27973    26864    26898 1
   27974    26864    26899 1
   27975    26865    26866 1
   27976    26865    26900 1
   27977    26865    26901 1
   27978    26866    26867 1
   27979    26866    26902 1
   27980    26866    26903 1
   27981    26867    26868 1
   27982    26867    26904 1
   27983    26867    26905 1
   27984    26868    26869 1
   27985    26868    26906 1
   27986    26868    26907 1
   27987    26869    26870 1
   27988    26869    26908 1
   27989    26869    26909 1
   27990    26870    26871 1
   27991    26870    26910 1
   27992    26870    26911 1
   27993    26871    26872 1
   27994    26871    26912 1
   27995    26871    26913 1
   27996    26872    26873 1
   27997    26872    26879 1
   27998    26872    26914 1
   27999    26873    26874 1
   28000    26873    26915 1
   28001    26873    26916 1
   28002    26874    26875 1
   28003    26874    26917 1
   28004    26874    26918 1
   28005    26875    26876 1
   28006    26875    26919 1
   28007    26875    26920 1
   28008    26876    26877 1
   28009    26876    26921 1
   28010    26876    26922 1
   28011    26877    26878 1
   28012    26877    26923 1
   28013    26877    26924 1
   28014    26878    26925 1
   28015    26878    26926 1
   28016    26878    26927 1
   28017    26879    26880 1
   28018    26879    26928 1
   28019    26879    26929 1
   28020    26880    26881 1
   28021    26881    26882 1
   28022    26881    26930 1
   28023    26881    26931 1
   28024    26882    26883 1
   28025    26882    26889 1
   28026    26882    26932 1
   28027    26883    26884 1
   28028    26883    26933 1
   28029    26883    26934 1
   28030    26884    26885 1
   28031    26884    26935 1
   28032    26884    26936 1
   28033    26885    26886 1
   28034    26885    26937 1
   28035    26885    26938 1
   28036    26886    26887 1
   28037    26886    26939 1
   28038    26886    26940 1
   28039    26887    26888 1
   28040    26887    26941 1
   28041    26887    26942 1
   28042    26888    26943 1
   28043    26888    26944 1
   28044    26888    26945 1
   28045    26889    26890 1
   28046    26889    26946 1
   28047    26889    26947 1
   28048    26890    26891 1
   28049    26890    26948 1
   28050    26890    26949 1
   28051    26891    26892 1
   28052    26891    26950 1
   28053    26891    26951 1
   28054    26892    26893 1
   28055    26892    26952 1
   28056    26892    26953 1
   28057    26893    26894 1
   28058    26893    26954 1
   28059    26893    26955 1
   28060    26894    26895 1
   28061    26894    26956 1
   28062    26894    26957 1
   28063    26895    26896 1
   28064    26895    26958 1
   28065    26895    26959 1
   28066    26896    26960 1
   28067    26896    26961 1
   28068    26896    26962 1
   28069    26963    26964 1
   28070    26963    26970 1
   28071    26963    27002 1
   28072    26964    26965 1
   28073    26964    26968 1
   28074    26965    26966 1
   28075    26965    26969 1
   28076    26966    26967 1
   28077    26967    26968 1
   28078    26967    26978 1
   28079    26968    26974 1
   28080    26969    26970 1
   28081    26969    26973 1
   28082    26970    26971 1
   28083    26971    26972 1
   28084    26971    26975 1
   28085    26972    26973 1
   28086    26976    26977 1
   28087    26976    26984 1
   28088    26977    26978 1
   28089    26977    26985 1
   28090    26978    26979 1
   28091    26979    26980 1
   28092    26979    26983 1
   28093    26980    26981 1
   28094    26981    26982 1
   28095    26982    26983 1
   28096    26983    26984 1
   28097    26984    27094 1
   28098    26986    26987 1
   28099    26986    27019 1
   28100    26986    27020 1
   28101    26986    27021 1
   28102    26987    26988 1
   28103    26987    27022 1
   28104    26987    27023 1
   28105    26988    26989 1
   28106    26988    27024 1
   28107    26988    27025 1
   28108    26989    26990 1
   28109    26989    27026 1
   28110    26989    27027 1
   28111    26990    26991 1
   28112    26990    27028 1
   28113    26990    27029 1
   28114    26991    26992 1
   28115    26991    27030 1
   28116    26991    27031 1
   28117    26992    26993 1
   28118    26992    27032 1
   28119    26992    27033 1
   28120    26993    26994 1
   28121    26993    27034 1
   28122    26993    27035 1
   28123    26994    26995 1
   28124    26994    27001 1
   28125    26994    27036 1
   28126    26995    26996 1
   28127    26995    27037 1
   28128    26995    27038 1
   28129    26996    26997 1
   28130    26996    27039 1
   28131    26996    27040 1
   28132    26997    26998 1
   28133    26997    27041 1
   28134    26997    27042 1
   28135    26998    26999 1
   28136    26998    27043 1
   28137    26998    27044 1
   28138    26999    27000 1
   28139    26999    27045 1
   28140    26999    27046 1
   28141    27000    27047 1
   28142    27000    27048 1
   28143    27000    27049 1
   28144    27001    27002 1
   28145    27001    27050 1
   28146    27001    27051 1
   28147    27002    27003 1
   28148    27003    27004 1
   28149    27003    27052 1
   28150    27003    27053 1
   28151    27004    27005 1
   28152    27004    27011 1
   28153    27004    27054 1
   28154    27005    27006 1
   28155    27005    27055 1
   28156    27005    27056 1
   28157    27006    27007 1
   28158    27006    27057 1
   28159    27006    27058 1
   28160    27007    27008 1
   28161    27007    27059 1
   28162    27007    27060 1
   28163    27008    27009 1
   28164    27008    27061 1
   28165    27008    27062 1
   28166    27009    27010 1
   28167    27009    27063 1
   28168    27009    27064 1
   28169    27010    27065 1
   28170    27010    27066 1
   28171    27010    27067 1
   28172    27011    27012 1
   28173    27011    27068 1
   28174    27011    27069 1
   28175    27012    27013 1
   28176    27012    27070 1
   28177    27012    27071 1
   28178    27013    27014 1
   28179    27013    27072 1
   28180    27013    27073 1
   28181    27014    27015 1
   28182    27014    27074 1
   28183    27014    27075 1
   28184    27015    27016 1
   28185    27015    27076 1
   28186    27015    27077 1
   28187    27016    27017 1
   28188    27016    27078 1
   28189    27016    27079 1
   28190    27017    27018 1
   28191    27017    27080 1
   28192    27017    27081 1
   28193    27018    27082 1
   28194    27018    27083 1
   28195    27018    27084 1
   28196    27085    27086 1
   28197    27085    27092 1
   28198    27085    27124 1
   28199    27086    27087 1
   28200    27086    27090 1
   28201    27087    27088 1
   28202    27087    27091 1
   28203    27088    27089 1
   28204    27089    27090 1
   28205    27089    27100 1
   28206    27090    27096 1
   28207    27091    27092 1
   28208    27091    27095 1
   28209    27092    27093 1
   28210    27093    27094 1
   28211    27093    27097 1
   28212    27094    27095 1
   28213    27098    27099 1
   28214    27098    27106 1
   28215    27099    27100 1
   28216    27099    27107 1
   28217    27100    27101 1
   28218    27101    27102 1
   28219    27101    27105 1
   28220    27102    27103 1
   28221    27103    27104 1
   28222    27104    27105 1
   28223    27105    27106 1
   28224    27106    27216 1
   28225    27108    27109 1
   28226    27108    27141 1
   28227    27108    27142 1
   28228    27108    27143 1
   28229    27109    27110 1
   28230    27109    27144 1
   28231    27109    27145 1
   28232    27110    27111 1
   28233    27110    27146 1
   28234    27110    27147 1
   28235    27111    27112 1
   28236    27111    27148 1
   28237    27111    27149 1
   28238    27112    27113 1
   28239    27112    27150 1
   28240    27112    27151 1
   28241    27113    27114 1
   28242    27113    27152 1
   28243    27113    27153 1
   28244    27114    27115 1
   28245    27114    27154 1
   28246    27114    27155 1
   28247    27115    27116 1
   28248    27115    27156 1
   28249    27115    27157 1
   28250    27116    27117 1
   28251    27116    27123 1
   28252    27116    27158 1
   28253    27117    27118 1
   28254    27117    27159 1
   28255    27117    27160 1
   28256    27118    27119 1
   28257    27118    27161 1
   28258    27118    27162 1
   28259    27119    27120 1
   28260    27119    27163 1
   28261    27119    27164 1
   28262    27120    27121 1
   28263    27120    27165 1
   28264    27120    27166 1
   28265    27121    27122 1
   28266    27121    27167 1
   28267    27121    27168 1
   28268    27122    27169 1
   28269    27122    27170 1
   28270    27122    27171 1
   28271    27123    27124 1
   28272    27123    27172 1
   28273    27123    27173 1
   28274    27124    27125 1
   28275    27125    27126 1
   28276    27125    27174 1
   28277    27125    27175 1
   28278    27126    27127 1
   28279    27126    27133 1
   28280    27126    27176 1
   28281    27127    27128 1
   28282    27127    27177 1
   28283    27127    27178 1
   28284    27128    27129 1
   28285    27128    27179 1
   28286    27128    27180 1
   28287    27129    27130 1
   28288    27129    27181 1
   28289    27129    27182 1
   28290    27130    27131 1
   28291    27130    27183 1
   28292    27130    27184 1
   28293    27131    27132 1
   28294    27131    27185 1
   28295    27131    27186 1
   28296    27132    27187 1
   28297    27132    27188 1
   28298    27132    27189 1
   28299    27133    27134 1
   28300    27133    27190 1
   28301    27133    27191 1
   28302    27134    27135 1
   28303    27134    27192 1
   28304    27134    27193 1
   28305    27135    27136 1
   28306    27135    27194 1
   28307    27135    27195 1
   28308    27136    27137 1
   28309    27136    27196 1
   28310    27136    27197 1
   28311    27137    27138 1
   28312    27137    27198 1
   28313    27137    27199 1
   28314    27138    27139 1
   28315    27138    27200 1
   28316    27138    27201 1
   28317    27139    27140 1
   28318    27139    27202 1
   28319    27139    27203 1
   28320    27140    27204 1
   28321    27140    27205 1
   28322    27140    27206 1
   28323    27207    27208 1
   28324    27207    27214 1
   28325    27207    27246 1
   28326    27208    27209 1
   28327    27208    27212 1
   28328    27209    27210 1
   28329    27209    27213 1
   28330    27210    27211 1
   28331    27211    27212 1
   28332    27211    27222 1
   28333    27212    27218 1
   28334    27213    27214 1
   28335    27213    27217 1
   28336    27214    27215 1
   28337    27215    27216 1
   28338    27215    27219 1
   28339    27216    27217 1
   28340    27220    27221 1
   28341    27220    27228 1
   28342    27221    27222 1
   28343    27221    27229 1
   28344    27222    27223 1
   28345    27223    27224 1
   28346    27223    27227 1
   28347    27224    27225 1
   28348    27225    27226 1
   28349    27226    27227 1
   28350    27227    27228 1
   28351    27228    27338 1
   28352    27230    27231 1
   28353    27230    27263 1
   28354    27230    27264 1
   28355    27230    27265 1
   28356    27231    27232 1
   28357    27231    27266 1
   28358    27231    27267 1
   28359    27232    27233 1
   28360    27232    27268 1
   28361    27232    27269 1
   28362    27233    27234 1
   28363    27233    27270 1
   28364    27233    27271 1
   28365    27234    27235 1
   28366    27234    27272 1
   28367    27234    27273 1
   28368    27235    27236 1
   28369    27235    27274 1
   28370    27235    27275 1
   28371    27236    27237 1
   28372    27236    27276 1
   28373    27236    27277 1
   28374    27237    27238 1
   28375    27237    27278 1
   28376    27237    27279 1
   28377    27238    27239 1
   28378    27238    27245 1
   28379    27238    27280 1
   28380    27239    27240 1
   28381    27239    27281 1
   28382    27239    27282 1
   28383    27240    27241 1
   28384    27240    27283 1
   28385    27240    27284 1
   28386    27241    27242 1
   28387    27241    27285 1
   28388    27241    27286 1
   28389    27242    27243 1
   28390    27242    27287 1
   28391    27242    27288 1
   28392    27243    27244 1
   28393    27243    27289 1
   28394    27243    27290 1
   28395    27244    27291 1
   28396    27244    27292 1
   28397    27244    27293 1
   28398    27245    27246 1
   28399    27245    27294 1
   28400    27245    27295 1
   28401    27246    27247 1
   28402    27247    27248 1
   28403    27247    27296 1
   28404    27247    27297 1
   28405    27248    27249 1
   28406    27248    27255 1
   28407    27248    27298 1
   28408    27249    27250 1
   28409    27249    27299 1
   28410    27249    27300 1
   28411    27250    27251 1
   28412    27250    27301 1
   28413    27250    27302 1
   28414    27251    27252 1
   28415    27251    27303 1
   28416    27251    27304 1
   28417    27252    27253 1
   28418    27252    27305 1
   28419    27252    27306 1
   28420    27253    27254 1
   28421    27253    27307 1
   28422    27253    27308 1
   28423    27254    27309 1
   28424    27254    27310 1
   28425    27254    27311 1
   28426    27255    27256 1
   28427    27255    27312 1
   28428    27255    27313 1
   28429    27256    27257 1
   28430    27256    27314 1
   28431    27256    27315 1
   28432    27257    27258 1
   28433    27257    27316 1
   28434    27257    27317 1
   28435    27258    27259 1
   28436    27258    27318 1
   28437    27258    27319 1
   28438    27259    27260 1
   28439    27259    27320 1
   28440    27259    27321 1
   28441    27260    27261 1
   28442    27260    27322 1
   28443    27260    27323 1
   28444    27261    27262 1
   28445    27261    27324 1
   28446    27261    27325 1
   28447    27262    27326 1
   28448    27262    27327 1
   28449    27262    27328 1
   28450    27329    27330 1
   28451    27329    27336 1
   28452    27329    27368 1
   28453    27330    27331 1
   28454    27330    27334 1
   28455    27331    27332 1
   28456    27331    27335 1
   28457    27332    27333 1
   28458    27333    27334 1
   28459    27333    27344 1
   28460    27334    27340 1
   28461    27335    27336 1
   28462    27335    27339 1
   28463    27336    27337 1
   28464    27337    27338 1
   28465    27337    27341 1
   28466    27338    27339 1
   28467    27342    27343 1
   28468    27342    27350 1
   28469    27343    27344 1
   28470    27343    27351 1
   28471    27344    27345 1
   28472    27345    27346 1
   28473    27345    27349 1
   28474    27346    27347 1
   28475    27347    27348 1
   28476    27348    27349 1
   28477    27349    27350 1
   28478    27350    27460 1
   28479    27352    27353 1
   28480    27352    27385 1
   28481    27352    27386 1
   28482    27352    27387 1
   28483    27353    27354 1
   28484    27353    27388 1
   28485    27353    27389 1
   28486    27354    27355 1
   28487    27354    27390 1
   28488    27354    27391 1
   28489    27355    27356 1
   28490    27355    27392 1
   28491    27355    27393 1
   28492    27356    27357 1
   28493    27356    27394 1
   28494    27356    27395 1
   28495    27357    27358 1
   28496    27357    27396 1
   28497    27357    27397 1
   28498    27358    27359 1
   28499    27358    27398 1
   28500    27358    27399 1
   28501    27359    27360 1
   28502    27359    27400 1
   28503    27359    27401 1
   28504    27360    27361 1
   28505    27360    27367 1
   28506    27360    27402 1
   28507    27361    27362 1
   28508    27361    27403 1
   28509    27361    27404 1
   28510    27362    27363 1
   28511    27362    27405 1
   28512    27362    27406 1
   28513    27363    27364 1
   28514    27363    27407 1
   28515    27363    27408 1
   28516    27364    27365 1
   28517    27364    27409 1
   28518    27364    27410 1
   28519    27365    27366 1
   28520    27365    27411 1
   28521    27365    27412 1
   28522    27366    27413 1
   28523    27366    27414 1
   28524    27366    27415 1
   28525    27367    27368 1
   28526    27367    27416 1
   28527    27367    27417 1
   28528    27368    27369 1
   28529    27369    27370 1
   28530    27369    27418 1
   28531    27369    27419 1
   28532    27370    27371 1
   28533    27370    27377 1
   28534    27370    27420 1
   28535    27371    27372 1
   28536    27371    27421 1
   28537    27371    27422 1
   28538    27372    27373 1
   28539    27372    27423 1
   28540    27372    27424 1
   28541    27373    27374 1
   28542    27373    27425 1
   28543    27373    27426 1
   28544    27374    27375 1
   28545    27374    27427 1
   28546    27374    27428 1
   28547    27375    27376 1
   28548    27375    27429 1
   28549    27375    27430 1
   28550    27376    27431 1
   28551    27376    27432 1
   28552    27376    27433 1
   28553    27377    27378 1
   28554    27377    27434 1
   28555    27377    27435 1
   28556    27378    27379 1
   28557    27378    27436 1
   28558    27378    27437 1
   28559    27379    27380 1
   28560    27379    27438 1
   28561    27379    27439 1
   28562    27380    27381 1
   28563    27380    27440 1
   28564    27380    27441 1
   28565    27381    27382 1
   28566    27381    27442 1
   28567    27381    27443 1
   28568    27382    27383 1
   28569    27382    27444 1
   28570    27382    27445 1
   28571    27383    27384 1
   28572    27383    27446 1
   28573    27383    27447 1
   28574    27384    27448 1
   28575    27384    27449 1
   28576    27384    27450 1
   28577    27451    27452 1
   28578    27451    27458 1
   28579    27451    27490 1
   28580    27452    27453 1
   28581    27452    27456 1
   28582    27453    27454 1
   28583    27453    27457 1
   28584    27454    27455 1
   28585    27455    27456 1
   28586    27455    27466 1
   28587    27456    27462 1
   28588    27457    27458 1
   28589    27457    27461 1
   28590    27458    27459 1
   28591    27459    27460 1
   28592    27459    27463 1
   28593    27460    27461 1
   28594    27464    27465 1
   28595    27464    27472 1
   28596    27465    27466 1
   28597    27465    27473 1
   28598    27466    27467 1
   28599    27467    27468 1
   28600    27467    27471 1
   28601    27468    27469 1
   28602    27469    27470 1
   28603    27470    27471 1
   28604    27471    27472 1
   28605    27472    27582 1
   28606    27474    27475 1
   28607    27474    27507 1
   28608    27474    27508 1
   28609    27474    27509 1
   28610    27475    27476 1
   28611    27475    27510 1
   28612    27475    27511 1
   28613    27476    27477 1
   28614    27476    27512 1
   28615    27476    27513 1
   28616    27477    27478 1
   28617    27477    27514 1
   28618    27477    27515 1
   28619    27478    27479 1
   28620    27478    27516 1
   28621    27478    27517 1
   28622    27479    27480 1
   28623    27479    27518 1
   28624    27479    27519 1
   28625    27480    27481 1
   28626    27480    27520 1
   28627    27480    27521 1
   28628    27481    27482 1
   28629    27481    27522 1
   28630    27481    27523 1
   28631    27482    27483 1
   28632    27482    27489 1
   28633    27482    27524 1
   28634    27483    27484 1
   28635    27483    27525 1
   28636    27483    27526 1
   28637    27484    27485 1
   28638    27484    27527 1
   28639    27484    27528 1
   28640    27485    27486 1
   28641    27485    27529 1
   28642    27485    27530 1
   28643    27486    27487 1
   28644    27486    27531 1
   28645    27486    27532 1
   28646    27487    27488 1
   28647    27487    27533 1
   28648    27487    27534 1
   28649    27488    27535 1
   28650    27488    27536 1
   28651    27488    27537 1
   28652    27489    27490 1
   28653    27489    27538 1
   28654    27489    27539 1
   28655    27490    27491 1
   28656    27491    27492 1
   28657    27491    27540 1
   28658    27491    27541 1
   28659    27492    27493 1
   28660    27492    27499 1
   28661    27492    27542 1
   28662    27493    27494 1
   28663    27493    27543 1
   28664    27493    27544 1
   28665    27494    27495 1
   28666    27494    27545 1
   28667    27494    27546 1
   28668    27495    27496 1
   28669    27495    27547 1
   28670    27495    27548 1
   28671    27496    27497 1
   28672    27496    27549 1
   28673    27496    27550 1
   28674    27497    27498 1
   28675    27497    27551 1
   28676    27497    27552 1
   28677    27498    27553 1
   28678    27498    27554 1
   28679    27498    27555 1
   28680    27499    27500 1
   28681    27499    27556 1
   28682    27499    27557 1
   28683    27500    27501 1
   28684    27500    27558 1
   28685    27500    27559 1
   28686    27501    27502 1
   28687    27501    27560 1
   28688    27501    27561 1
   28689    27502    27503 1
   28690    27502    27562 1
   28691    27502    27563 1
   28692    27503    27504 1
   28693    27503    27564 1
   28694    27503    27565 1
   28695    27504    27505 1
   28696    27504    27566 1
   28697    27504    27567 1
   28698    27505    27506 1
   28699    27505    27568 1
   28700    27505    27569 1
   28701    27506    27570 1
   28702    27506    27571 1
   28703    27506    27572 1
   28704    27573    27574 1
   28705    27573    27580 1
   28706    27573    27612 1
   28707    27574    27575 1
   28708    27574    27578 1
   28709    27575    27576 1
   28710    27575    27579 1
   28711    27576    27577 1
   28712    27577    27578 1
   28713    27577    27588 1
   28714    27578    27584 1
   28715    27579    27580 1
   28716    27579    27583 1
   28717    27580    27581 1
   28718    27581    27582 1
   28719    27581    27585 1
   28720    27582    27583 1
   28721    27586    27587 1
   28722    27586    27594 1
   28723    27587    27588 1
   28724    27587    27595 1
   28725    27588    27589 1
   28726    27589    27590 1
   28727    27589    27593 1
   28728    27590    27591 1
   28729    27591    27592 1
   28730    27592    27593 1
   28731    27593    27594 1
   28732    27594    27704 1
   28733    27596    27597 1
   28734    27596    27629 1
   28735    27596    27630 1
   28736    27596    27631 1
   28737    27597    27598 1
   28738    27597    27632 1
   28739    27597    27633 1
   28740    27598    27599 1
   28741    27598    27634 1
   28742    27598    27635 1
   28743    27599    27600 1
   28744    27599    27636 1
   28745    27599    27637 1
   28746    27600    27601 1
   28747    27600    27638 1
   28748    27600    27639 1
   28749    27601    27602 1
   28750    27601    27640 1
   28751    27601    27641 1
   28752    27602    27603 1
   28753    27602    27642 1
   28754    27602    27643 1
   28755    27603    27604 1
   28756    27603    27644 1
   28757    27603    27645 1
   28758    27604    27605 1
   28759    27604    27611 1
   28760    27604    27646 1
   28761    27605    27606 1
   28762    27605    27647 1
   28763    27605    27648 1
   28764    27606    27607 1
   28765    27606    27649 1
   28766    27606    27650 1
   28767    27607    27608 1
   28768    27607    27651 1
   28769    27607    27652 1
   28770    27608    27609 1
   28771    27608    27653 1
   28772    27608    27654 1
   28773    27609    27610 1
   28774    27609    27655 1
   28775    27609    27656 1
   28776    27610    27657 1
   28777    27610    27658 1
   28778    27610    27659 1
   28779    27611    27612 1
   28780    27611    27660 1
   28781    27611    27661 1
   28782    27612    27613 1
   28783    27613    27614 1
   28784    27613    27662 1
   28785    27613    27663 1
   28786    27614    27615 1
   28787    27614    27621 1
   28788    27614    27664 1
   28789    27615    27616 1
   28790    27615    27665 1
   28791    27615    27666 1
   28792    27616    27617 1
   28793    27616    27667 1
   28794    27616    27668 1
   28795    27617    27618 1
   28796    27617    27669 1
   28797    27617    27670 1
   28798    27618    27619 1
   28799    27618    27671 1
   28800    27618    27672 1
   28801    27619    27620 1
   28802    27619    27673 1
   28803    27619    27674 1
   28804    27620    27675 1
   28805    27620    27676 1
   28806    27620    27677 1
   28807    27621    27622 1
   28808    27621    27678 1
   28809    27621    27679 1
   28810    27622    27623 1
   28811    27622    27680 1
   28812    27622    27681 1
   28813    27623    27624 1
   28814    27623    27682 1
   28815    27623    27683 1
   28816    27624    27625 1
   28817    27624    27684 1
   28818    27624    27685 1
   28819    27625    27626 1
   28820    27625    27686 1
   28821    27625    27687 1
   28822    27626    27627 1
   28823    27626    27688 1
   28824    27626    27689 1
   28825    27627    27628 1
   28826    27627    27690 1
   28827    27627    27691 1
   28828    27628    27692 1
   28829    27628    27693 1
   28830    27628    27694 1
   28831    27695    27696 1
   28832    27695    27702 1
   28833    27695    27734 1
   28834    27696    27697 1
   28835    27696    27700 1
   28836    27697    27698 1
   28837    27697    27701 1
   28838    27698    27699 1
   28839    27699    27700 1
   28840    27699    27710 1
   28841    27700    27706 1
   28842    27701    27702 1
   28843    27701    27705 1
   28844    27702    27703 1
   28845    27703    27704 1
   28846    27703    27707 1
   28847    27704    27705 1
   28848    27708    27709 1
   28849    27708    27716 1
   28850    27709    27710 1
   28851    27709    27717 1
   28852    27710    27711 1
   28853    27711    27712 1
   28854    27711    27715 1
   28855    27712    27713 1
   28856    27713    27714 1
   28857    27714    27715 1
   28858    27715    27716 1
   28859    27716    27826 1
   28860    27718    27719 1
   28861    27718    27751 1
   28862    27718    27752 1
   28863    27718    27753 1
   28864    27719    27720 1
   28865    27719    27754 1
   28866    27719    27755 1
   28867    27720    27721 1
   28868    27720    27756 1
   28869    27720    27757 1
   28870    27721    27722 1
   28871    27721    27758 1
   28872    27721    27759 1
   28873    27722    27723 1
   28874    27722    27760 1
   28875    27722    27761 1
   28876    27723    27724 1
   28877    27723    27762 1
   28878    27723    27763 1
   28879    27724    27725 1
   28880    27724    27764 1
   28881    27724    27765 1
   28882    27725    27726 1
   28883    27725    27766 1
   28884    27725    27767 1
   28885    27726    27727 1
   28886    27726    27733 1
   28887    27726    27768 1
   28888    27727    27728 1
   28889    27727    27769 1
   28890    27727    27770 1
   28891    27728    27729 1
   28892    27728    27771 1
   28893    27728    27772 1
   28894    27729    27730 1
   28895    27729    27773 1
   28896    27729    27774 1
   28897    27730    27731 1
   28898    27730    27775 1
   28899    27730    27776 1
   28900    27731    27732 1
   28901    27731    27777 1
   28902    27731    27778 1
   28903    27732    27779 1
   28904    27732    27780 1
   28905    27732    27781 1
   28906    27733    27734 1
   28907    27733    27782 1
   28908    27733    27783 1
   28909    27734    27735 1
   28910    27735    27736 1
   28911    27735    27784 1
   28912    27735    27785 1
   28913    27736    27737 1
   28914    27736    27743 1
   28915    27736    27786 1
   28916    27737    27738 1
   28917    27737    27787 1
   28918    27737    27788 1
   28919    27738    27739 1
   28920    27738    27789 1
   28921    27738    27790 1
   28922    27739    27740 1
   28923    27739    27791 1
   28924    27739    27792 1
   28925    27740    27741 1
   28926    27740    27793 1
   28927    27740    27794 1
   28928    27741    27742 1
   28929    27741    27795 1
   28930    27741    27796 1
   28931    27742    27797 1
   28932    27742    27798 1
   28933    27742    27799 1
   28934    27743    27744 1
   28935    27743    27800 1
   28936    27743    27801 1
   28937    27744    27745 1
   28938    27744    27802 1
   28939    27744    27803 1
   28940    27745    27746 1
   28941    27745    27804 1
   28942    27745    27805 1
   28943    27746    27747 1
   28944    27746    27806 1
   28945    27746    27807 1
   28946    27747    27748 1
   28947    27747    27808 1
   28948    27747    27809 1
   28949    27748    27749 1
   28950    27748    27810 1
   28951    27748    27811 1
   28952    27749    27750 1
   28953    27749    27812 1
   28954    27749    27813 1
   28955    27750    27814 1
   28956    27750    27815 1
   28957    27750    27816 1
   28958    27817    27818 1
   28959    27817    27824 1
   28960    27817    27856 1
   28961    27818    27819 1
   28962    27818    27822 1
   28963    27819    27820 1
   28964    27819    27823 1
   28965    27820    27821 1
   28966    27821    27822 1
   28967    27821    27832 1
   28968    27822    27828 1
   28969    27823    27824 1
   28970    27823    27827 1
   28971    27824    27825 1
   28972    27825    27826 1
   28973    27825    27829 1
   28974    27826    27827 1
   28975    27830    27831 1
   28976    27830    27838 1
   28977    27831    27832 1
   28978    27831    27839 1
   28979    27832    27833 1
   28980    27833    27834 1
   28981    27833    27837 1
   28982    27834    27835 1
   28983    27835    27836 1
   28984    27836    27837 1
   28985    27837    27838 1
   28986    27838    27948 1
   28987    27840    27841 1
   28988    27840    27873 1
   28989    27840    27874 1
   28990    27840    27875 1
   28991    27841    27842 1
   28992    27841    27876 1
   28993    27841    27877 1
   28994    27842    27843 1
   28995    27842    27878 1
   28996    27842    27879 1
   28997    27843    27844 1
   28998    27843    27880 1
   28999    27843    27881 1
   29000    27844    27845 1
   29001    27844    27882 1
   29002    27844    27883 1
   29003    27845    27846 1
   29004    27845    27884 1
   29005    27845    27885 1
   29006    27846    27847 1
   29007    27846    27886 1
   29008    27846    27887 1
   29009    27847    27848 1
   29010    27847    27888 1
   29011    27847    27889 1
   29012    27848    27849 1
   29013    27848    27855 1
   29014    27848    27890 1
   29015    27849    27850 1
   29016    27849    27891 1
   29017    27849    27892 1
   29018    27850    27851 1
   29019    27850    27893 1
   29020    27850    27894 1
   29021    27851    27852 1
   29022    27851    27895 1
   29023    27851    27896 1
   29024    27852    27853 1
   29025    27852    27897 1
   29026    27852    27898 1
   29027    27853    27854 1
   29028    27853    27899 1
   29029    27853    27900 1
   29030    27854    27901 1
   29031    27854    27902 1
   29032    27854    27903 1
   29033    27855    27856 1
   29034    27855    27904 1
   29035    27855    27905 1
   29036    27856    27857 1
   29037    27857    27858 1
   29038    27857    27906 1
   29039    27857    27907 1
   29040    27858    27859 1
   29041    27858    27865 1
   29042    27858    27908 1
   29043    27859    27860 1
   29044    27859    27909 1
   29045    27859    27910 1
   29046    27860    27861 1
   29047    27860    27911 1
   29048    27860    27912 1
   29049    27861    27862 1
   29050    27861    27913 1
   29051    27861    27914 1
   29052    27862    27863 1
   29053    27862    27915 1
   29054    27862    27916 1
   29055    27863    27864 1
   29056    27863    27917 1
   29057    27863    27918 1
   29058    27864    27919 1
   29059    27864    27920 1
   29060    27864    27921 1
   29061    27865    27866 1
   29062    27865    27922 1
   29063    27865    27923 1
   29064    27866    27867 1
   29065    27866    27924 1
   29066    27866    27925 1
   29067    27867    27868 1
   29068    27867    27926 1
   29069    27867    27927 1
   29070    27868    27869 1
   29071    27868    27928 1
   29072    27868    27929 1
   29073    27869    27870 1
   29074    27869    27930 1
   29075    27869    27931 1
   29076    27870    27871 1
   29077    27870    27932 1
   29078    27870    27933 1
   29079    27871    27872 1
   29080    27871    27934 1
   29081    27871    27935 1
   29082    27872    27936 1
   29083    27872    27937 1
   29084    27872    27938 1
   29085    27939    27940 1
   29086    27939    27946 1
   29087    27939    27978 1
   29088    27940    27941 1
   29089    27940    27944 1
   29090    27941    27942 1
   29091    27941    27945 1
   29092    27942    27943 1
   29093    27943    27944 1
   29094    27943    27954 1
   29095    27944    27950 1
   29096    27945    27946 1
   29097    27945    27949 1
   29098    27946    27947 1
   29099    27947    27948 1
   29100    27947    27951 1
   29101    27948    27949 1
   29102    27952    27953 1
   29103    27952    27960 1
   29104    27953    27954 1
   29105    27953    27961 1
   29106    27954    27955 1
   29107    27955    27956 1
   29108    27955    27959 1
   29109    27956    27957 1
   29110    27957    27958 1
   29111    27958    27959 1
   29112    27959    27960 1
   29113    27960    28070 1
   29114    27962    27963 1
   29115    27962    27995 1
   29116    27962    27996 1
   29117    27962    27997 1
   29118    27963    27964 1
   29119    27963    27998 1
   29120    27963    27999 1
   29121    27964    27965 1
   29122    27964    28000 1
   29123    27964    28001 1
   29124    27965    27966 1
   29125    27965    28002 1
   29126    27965    28003 1
   29127    27966    27967 1
   29128    27966    28004 1
   29129    27966    28005 1
   29130    27967    27968 1
   29131    27967    28006 1
   29132    27967    28007 1
   29133    27968    27969 1
   29134    27968    28008 1
   29135    27968    28009 1
   29136    27969    27970 1
   29137    27969    28010 1
   29138    27969    28011 1
   29139    27970    27971 1
   29140    27970    27977 1
   29141    27970    28012 1
   29142    27971    27972 1
   29143    27971    28013 1
   29144    27971    28014 1
   29145    27972    27973 1
   29146    27972    28015 1
   29147    27972    28016 1
   29148    27973    27974 1
   29149    27973    28017 1
   29150    27973    28018 1
   29151    27974    27975 1
   29152    27974    28019 1
   29153    27974    28020 1
   29154    27975    27976 1
   29155    27975    28021 1
   29156    27975    28022 1
   29157    27976    28023 1
   29158    27976    28024 1
   29159    27976    28025 1
   29160    27977    27978 1
   29161    27977    28026 1
   29162    27977    28027 1
   29163    27978    27979 1
   29164    27979    27980 1
   29165    27979    28028 1
   29166    27979    28029 1
   29167    27980    27981 1
   29168    27980    27987 1
   29169    27980    28030 1
   29170    27981    27982 1
   29171    27981    28031 1
   29172    27981    28032 1
   29173    27982    27983 1
   29174    27982    28033 1
   29175    27982    28034 1
   29176    27983    27984 1
   29177    27983    28035 1
   29178    27983    28036 1
   29179    27984    27985 1
   29180    27984    28037 1
   29181    27984    28038 1
   29182    27985    27986 1
   29183    27985    28039 1
   29184    27985    28040 1
   29185    27986    28041 1
   29186    27986    28042 1
   29187    27986    28043 1
   29188    27987    27988 1
   29189    27987    28044 1
   29190    27987    28045 1
   29191    27988    27989 1
   29192    27988    28046 1
   29193    27988    28047 1
   29194    27989    27990 1
   29195    27989    28048 1
   29196    27989    28049 1
   29197    27990    27991 1
   29198    27990    28050 1
   29199    27990    28051 1
   29200    27991    27992 1
   29201    27991    28052 1
   29202    27991    28053 1
   29203    27992    27993 1
   29204    27992    28054 1
   29205    27992    28055 1
   29206    27993    27994 1
   29207    27993    28056 1
   29208    27993    28057 1
   29209    27994    28058 1
   29210    27994    28059 1
   29211    27994    28060 1
   29212    28061    28062 1
   29213    28061    28068 1
   29214    28061    28100 1
   29215    28062    28063 1
   29216    28062    28066 1
   29217    28063    28064 1
   29218    28063    28067 1
   29219    28064    28065 1
   29220    28065    28066 1
   29221    28065    28076 1
   29222    28066    28072 1
   29223    28067    28068 1
   29224    28067    28071 1
   29225    28068    28069 1
   29226    28069    28070 1
   29227    28069    28073 1
   29228    28070    28071 1
   29229    28074    28075 1
   29230    28074    28082 1
   29231    28075    28076 1
   29232    28075    28083 1
   29233    28076    28077 1
   29234    28077    28078 1
   29235    28077    28081 1
   29236    28078    28079 1
   29237    28079    28080 1
   29238    28080    28081 1
   29239    28081    28082 1
   29240    28082    28192 1
   29241    28084    28085 1
   29242    28084    28117 1
   29243    28084    28118 1
   29244    28084    28119 1
   29245    28085    28086 1
   29246    28085    28120 1
   29247    28085    28121 1
   29248    28086    28087 1
   29249    28086    28122 1
   29250    28086    28123 1
   29251    28087    28088 1
   29252    28087    28124 1
   29253    28087    28125 1
   29254    28088    28089 1
   29255    28088    28126 1
   29256    28088    28127 1
   29257    28089    28090 1
   29258    28089    28128 1
   29259    28089    28129 1
   29260    28090    28091 1
   29261    28090    28130 1
   29262    28090    28131 1
   29263    28091    28092 1
   29264    28091    28132 1
   29265    28091    28133 1
   29266    28092    28093 1
   29267    28092    28099 1
   29268    28092    28134 1
   29269    28093    28094 1
   29270    28093    28135 1
   29271    28093    28136 1
   29272    28094    28095 1
   29273    28094    28137 1
   29274    28094    28138 1
   29275    28095    28096 1
   29276    28095    28139 1
   29277    28095    28140 1
   29278    28096    28097 1
   29279    28096    28141 1
   29280    28096    28142 1
   29281    28097    28098 1
   29282    28097    28143 1
   29283    28097    28144 1
   29284    28098    28145 1
   29285    28098    28146 1
   29286    28098    28147 1
   29287    28099    28100 1
   29288    28099    28148 1
   29289    28099    28149 1
   29290    28100    28101 1
   29291    28101    28102 1
   29292    28101    28150 1
   29293    28101    28151 1
   29294    28102    28103 1
   29295    28102    28109 1
   29296    28102    28152 1
   29297    28103    28104 1
   29298    28103    28153 1
   29299    28103    28154 1
   29300    28104    28105 1
   29301    28104    28155 1
   29302    28104    28156 1
   29303    28105    28106 1
   29304    28105    28157 1
   29305    28105    28158 1
   29306    28106    28107 1
   29307    28106    28159 1
   29308    28106    28160 1
   29309    28107    28108 1
   29310    28107    28161 1
   29311    28107    28162 1
   29312    28108    28163 1
   29313    28108    28164 1
   29314    28108    28165 1
   29315    28109    28110 1
   29316    28109    28166 1
   29317    28109    28167 1
   29318    28110    28111 1
   29319    28110    28168 1
   29320    28110    28169 1
   29321    28111    28112 1
   29322    28111    28170 1
   29323    28111    28171 1
   29324    28112    28113 1
   29325    28112    28172 1
   29326    28112    28173 1
   29327    28113    28114 1
   29328    28113    28174 1
   29329    28113    28175 1
   29330    28114    28115 1
   29331    28114    28176 1
   29332    28114    28177 1
   29333    28115    28116 1
   29334    28115    28178 1
   29335    28115    28179 1
   29336    28116    28180 1
   29337    28116    28181 1
   29338    28116    28182 1
   29339    28183    28184 1
   29340    28183    28190 1
   29341    28183    28222 1
   29342    28184    28185 1
   29343    28184    28188 1
   29344    28185    28186 1
   29345    28185    28189 1
   29346    28186    28187 1
   29347    28187    28188 1
   29348    28187    28198 1
   29349    28188    28194 1
   29350    28189    28190 1
   29351    28189    28193 1
   29352    28190    28191 1
   29353    28191    28192 1
   29354    28191    28195 1
   29355    28192    28193 1
   29356    28196    28197 1
   29357    28196    28204 1
   29358    28197    28198 1
   29359    28197    28205 1
   29360    28198    28199 1
   29361    28199    28200 1
   29362    28199    28203 1
   29363    28200    28201 1
   29364    28201    28202 1
   29365    28202    28203 1
   29366    28203    28204 1
   29367    28204    28314 1
   29368    28206    28207 1
   29369    28206    28239 1
   29370    28206    28240 1
   29371    28206    28241 1
   29372    28207    28208 1
   29373    28207    28242 1
   29374    28207    28243 1
   29375    28208    28209 1
   29376    28208    28244 1
   29377    28208    28245 1
   29378    28209    28210 1
   29379    28209    28246 1
   29380    28209    28247 1
   29381    28210    28211 1
   29382    28210    28248 1
   29383    28210    28249 1
   29384    28211    28212 1
   29385    28211    28250 1
   29386    28211    28251 1
   29387    28212    28213 1
   29388    28212    28252 1
   29389    28212    28253 1
   29390    28213    28214 1
   29391    28213    28254 1
   29392    28213    28255 1
   29393    28214    28215 1
   29394    28214    28221 1
   29395    28214    28256 1
   29396    28215    28216 1
   29397    28215    28257 1
   29398    28215    28258 1
   29399    28216    28217 1
   29400    28216    28259 1
   29401    28216    28260 1
   29402    28217    28218 1
   29403    28217    28261 1
   29404    28217    28262 1
   29405    28218    28219 1
   29406    28218    28263 1
   29407    28218    28264 1
   29408    28219    28220 1
   29409    28219    28265 1
   29410    28219    28266 1
   29411    28220    28267 1
   29412    28220    28268 1
   29413    28220    28269 1
   29414    28221    28222 1
   29415    28221    28270 1
   29416    28221    28271 1
   29417    28222    28223 1
   29418    28223    28224 1
   29419    28223    28272 1
   29420    28223    28273 1
   29421    28224    28225 1
   29422    28224    28231 1
   29423    28224    28274 1
   29424    28225    28226 1
   29425    28225    28275 1
   29426    28225    28276 1
   29427    28226    28227 1
   29428    28226    28277 1
   29429    28226    28278 1
   29430    28227    28228 1
   29431    28227    28279 1
   29432    28227    28280 1
   29433    28228    28229 1
   29434    28228    28281 1
   29435    28228    28282 1
   29436    28229    28230 1
   29437    28229    28283 1
   29438    28229    28284 1
   29439    28230    28285 1
   29440    28230    28286 1
   29441    28230    28287 1
   29442    28231    28232 1
   29443    28231    28288 1
   29444    28231    28289 1
   29445    28232    28233 1
   29446    28232    28290 1
   29447    28232    28291 1
   29448    28233    28234 1
   29449    28233    28292 1
   29450    28233    28293 1
   29451    28234    28235 1
   29452    28234    28294 1
   29453    28234    28295 1
   29454    28235    28236 1
   29455    28235    28296 1
   29456    28235    28297 1
   29457    28236    28237 1
   29458    28236    28298 1
   29459    28236    28299 1
   29460    28237    28238 1
   29461    28237    28300 1
   29462    28237    28301 1
   29463    28238    28302 1
   29464    28238    28303 1
   29465    28238    28304 1
   29466    28305    28306 1
   29467    28305    28312 1
   29468    28305    28344 1
   29469    28306    28307 1
   29470    28306    28310 1
   29471    28307    28308 1
   29472    28307    28311 1
   29473    28308    28309 1
   29474    28309    28310 1
   29475    28309    28320 1
   29476    28310    28316 1
   29477    28311    28312 1
   29478    28311    28315 1
   29479    28312    28313 1
   29480    28313    28314 1
   29481    28313    28317 1
   29482    28314    28315 1
   29483    28318    28319 1
   29484    28318    28326 1
   29485    28319    28320 1
   29486    28319    28327 1
   29487    28320    28321 1
   29488    28321    28322 1
   29489    28321    28325 1
   29490    28322    28323 1
   29491    28323    28324 1
   29492    28324    28325 1
   29493    28325    28326 1
   29494    28326    28436 1
   29495    28328    28329 1
   29496    28328    28361 1
   29497    28328    28362 1
   29498    28328    28363 1
   29499    28329    28330 1
   29500    28329    28364 1
   29501    28329    28365 1
   29502    28330    28331 1
   29503    28330    28366 1
   29504    28330    28367 1
   29505    28331    28332 1
   29506    28331    28368 1
   29507    28331    28369 1
   29508    28332    28333 1
   29509    28332    28370 1
   29510    28332    28371 1
   29511    28333    28334 1
   29512    28333    28372 1
   29513    28333    28373 1
   29514    28334    28335 1
   29515    28334    28374 1
   29516    28334    28375 1
   29517    28335    28336 1
   29518    28335    28376 1
   29519    28335    28377 1
   29520    28336    28337 1
   29521    28336    28343 1
   29522    28336    28378 1
   29523    28337    28338 1
   29524    28337    28379 1
   29525    28337    28380 1
   29526    28338    28339 1
   29527    28338    28381 1
   29528    28338    28382 1
   29529    28339    28340 1
   29530    28339    28383 1
   29531    28339    28384 1
   29532    28340    28341 1
   29533    28340    28385 1
   29534    28340    28386 1
   29535    28341    28342 1
   29536    28341    28387 1
   29537    28341    28388 1
   29538    28342    28389 1
   29539    28342    28390 1
   29540    28342    28391 1
   29541    28343    28344 1
   29542    28343    28392 1
   29543    28343    28393 1
   29544    28344    28345 1
   29545    28345    28346 1
   29546    28345    28394 1
   29547    28345    28395 1
   29548    28346    28347 1
   29549    28346    28353 1
   29550    28346    28396 1
   29551    28347    28348 1
   29552    28347    28397 1
   29553    28347    28398 1
   29554    28348    28349 1
   29555    28348    28399 1
   29556    28348    28400 1
   29557    28349    28350 1
   29558    28349    28401 1
   29559    28349    28402 1
   29560    28350    28351 1
   29561    28350    28403 1
   29562    28350    28404 1
   29563    28351    28352 1
   29564    28351    28405 1
   29565    28351    28406 1
   29566    28352    28407 1
   29567    28352    28408 1
   29568    28352    28409 1
   29569    28353    28354 1
   29570    28353    28410 1
   29571    28353    28411 1
   29572    28354    28355 1
   29573    28354    28412 1
   29574    28354    28413 1
   29575    28355    28356 1
   29576    28355    28414 1
   29577    28355    28415 1
   29578    28356    28357 1
   29579    28356    28416 1
   29580    28356    28417 1
   29581    28357    28358 1
   29582    28357    28418 1
   29583    28357    28419 1
   29584    28358    28359 1
   29585    28358    28420 1
   29586    28358    28421 1
   29587    28359    28360 1
   29588    28359    28422 1
   29589    28359    28423 1
   29590    28360    28424 1
   29591    28360    28425 1
   29592    28360    28426 1
   29593    28427    28428 1
   29594    28427    28434 1
   29595    28427    28466 1
   29596    28428    28429 1
   29597    28428    28432 1
   29598    28429    28430 1
   29599    28429    28433 1
   29600    28430    28431 1
   29601    28431    28432 1
   29602    28431    28442 1
   29603    28432    28438 1
   29604    28433    28434 1
   29605    28433    28437 1
   29606    28434    28435 1
   29607    28435    28436 1
   29608    28435    28439 1
   29609    28436    28437 1
   29610    28440    28441 1
   29611    28440    28448 1
   29612    28441    28442 1
   29613    28441    28449 1
   29614    28442    28443 1
   29615    28443    28444 1
   29616    28443    28447 1
   29617    28444    28445 1
   29618    28445    28446 1
   29619    28446    28447 1
   29620    28447    28448 1
   29621    28448    28558 1
   29622    28450    28451 1
   29623    28450    28483 1
   29624    28450    28484 1
   29625    28450    28485 1
   29626    28451    28452 1
   29627    28451    28486 1
   29628    28451    28487 1
   29629    28452    28453 1
   29630    28452    28488 1
   29631    28452    28489 1
   29632    28453    28454 1
   29633    28453    28490 1
   29634    28453    28491 1
   29635    28454    28455 1
   29636    28454    28492 1
   29637    28454    28493 1
   29638    28455    28456 1
   29639    28455    28494 1
   29640    28455    28495 1
   29641    28456    28457 1
   29642    28456    28496 1
   29643    28456    28497 1
   29644    28457    28458 1
   29645    28457    28498 1
   29646    28457    28499 1
   29647    28458    28459 1
   29648    28458    28465 1
   29649    28458    28500 1
   29650    28459    28460 1
   29651    28459    28501 1
   29652    28459    28502 1
   29653    28460    28461 1
   29654    28460    28503 1
   29655    28460    28504 1
   29656    28461    28462 1
   29657    28461    28505 1
   29658    28461    28506 1
   29659    28462    28463 1
   29660    28462    28507 1
   29661    28462    28508 1
   29662    28463    28464 1
   29663    28463    28509 1
   29664    28463    28510 1
   29665    28464    28511 1
   29666    28464    28512 1
   29667    28464    28513 1
   29668    28465    28466 1
   29669    28465    28514 1
   29670    28465    28515 1
   29671    28466    28467 1
   29672    28467    28468 1
   29673    28467    28516 1
   29674    28467    28517 1
   29675    28468    28469 1
   29676    28468    28475 1
   29677    28468    28518 1
   29678    28469    28470 1
   29679    28469    28519 1
   29680    28469    28520 1
   29681    28470    28471 1
   29682    28470    28521 1
   29683    28470    28522 1
   29684    28471    28472 1
   29685    28471    28523 1
   29686    28471    28524 1
   29687    28472    28473 1
   29688    28472    28525 1
   29689    28472    28526 1
   29690    28473    28474 1
   29691    28473    28527 1
   29692    28473    28528 1
   29693    28474    28529 1
   29694    28474    28530 1
   29695    28474    28531 1
   29696    28475    28476 1
   29697    28475    28532 1
   29698    28475    28533 1
   29699    28476    28477 1
   29700    28476    28534 1
   29701    28476    28535 1
   29702    28477    28478 1
   29703    28477    28536 1
   29704    28477    28537 1
   29705    28478    28479 1
   29706    28478    28538 1
   29707    28478    28539 1
   29708    28479    28480 1
   29709    28479    28540 1
   29710    28479    28541 1
   29711    28480    28481 1
   29712    28480    28542 1
   29713    28480    28543 1
   29714    28481    28482 1
   29715    28481    28544 1
   29716    28481    28545 1
   29717    28482    28546 1
   29718    28482    28547 1
   29719    28482    28548 1
   29720    28549    28550 1
   29721    28549    28556 1
   29722    28549    28588 1
   29723    28550    28551 1
   29724    28550    28554 1
   29725    28551    28552 1
   29726    28551    28555 1
   29727    28552    28553 1
   29728    28553    28554 1
   29729    28553    28564 1
   29730    28554    28560 1
   29731    28555    28556 1
   29732    28555    28559 1
   29733    28556    28557 1
   29734    28557    28558 1
   29735    28557    28561 1
   29736    28558    28559 1
   29737    28562    28563 1
   29738    28562    28570 1
   29739    28563    28564 1
   29740    28563    28571 1
   29741    28564    28565 1
   29742    28565    28566 1
   29743    28565    28569 1
   29744    28566    28567 1
   29745    28567    28568 1
   29746    28568    28569 1
   29747    28569    28570 1
   29748    28570    28680 1
   29749    28572    28573 1
   29750    28572    28605 1
   29751    28572    28606 1
   29752    28572    28607 1
   29753    28573    28574 1
   29754    28573    28608 1
   29755    28573    28609 1
   29756    28574    28575 1
   29757    28574    28610 1
   29758    28574    28611 1
   29759    28575    28576 1
   29760    28575    28612 1
   29761    28575    28613 1
   29762    28576    28577 1
   29763    28576    28614 1
   29764    28576    28615 1
   29765    28577    28578 1
   29766    28577    28616 1
   29767    28577    28617 1
   29768    28578    28579 1
   29769    28578    28618 1
   29770    28578    28619 1
   29771    28579    28580 1
   29772    28579    28620 1
   29773    28579    28621 1
   29774    28580    28581 1
   29775    28580    28587 1
   29776    28580    28622 1
   29777    28581    28582 1
   29778    28581    28623 1
   29779    28581    28624 1
   29780    28582    28583 1
   29781    28582    28625 1
   29782    28582    28626 1
   29783    28583    28584 1
   29784    28583    28627 1
   29785    28583    28628 1
   29786    28584    28585 1
   29787    28584    28629 1
   29788    28584    28630 1
   29789    28585    28586 1
   29790    28585    28631 1
   29791    28585    28632 1
   29792    28586    28633 1
   29793    28586    28634 1
   29794    28586    28635 1
   29795    28587    28588 1
   29796    28587    28636 1
   29797    28587    28637 1
   29798    28588    28589 1
   29799    28589    28590 1
   29800    28589    28638 1
   29801    28589    28639 1
   29802    28590    28591 1
   29803    28590    28597 1
   29804    28590    28640 1
   29805    28591    28592 1
   29806    28591    28641 1
   29807    28591    28642 1
   29808    28592    28593 1
   29809    28592    28643 1
   29810    28592    28644 1
   29811    28593    28594 1
   29812    28593    28645 1
   29813    28593    28646 1
   29814    28594    28595 1
   29815    28594    28647 1
   29816    28594    28648 1
   29817    28595    28596 1
   29818    28595    28649 1
   29819    28595    28650 1
   29820    28596    28651 1
   29821    28596    28652 1
   29822    28596    28653 1
   29823    28597    28598 1
   29824    28597    28654 1
   29825    28597    28655 1
   29826    28598    28599 1
   29827    28598    28656 1
   29828    28598    28657 1
   29829    28599    28600 1
   29830    28599    28658 1
   29831    28599    28659 1
   29832    28600    28601 1
   29833    28600    28660 1
   29834    28600    28661 1
   29835    28601    28602 1
   29836    28601    28662 1
   29837    28601    28663 1
   29838    28602    28603 1
   29839    28602    28664 1
   29840    28602    28665 1
   29841    28603    28604 1
   29842    28603    28666 1
   29843    28603    28667 1
   29844    28604    28668 1
   29845    28604    28669 1
   29846    28604    28670 1
   29847    28671    28672 1
   29848    28671    28678 1
   29849    28671    28710 1
   29850    28672    28673 1
   29851    28672    28676 1
   29852    28673    28674 1
   29853    28673    28677 1
   29854    28674    28675 1
   29855    28675    28676 1
   29856    28675    28686 1
   29857    28676    28682 1
   29858    28677    28678 1
   29859    28677    28681 1
   29860    28678    28679 1
   29861    28679    28680 1
   29862    28679    28683 1
   29863    28680    28681 1
   29864    28684    28685 1
   29865    28684    28692 1
   29866    28685    28686 1
   29867    28685    28693 1
   29868    28686    28687 1
   29869    28687    28688 1
   29870    28687    28691 1
   29871    28688    28689 1
   29872    28689    28690 1
   29873    28690    28691 1
   29874    28691    28692 1
   29875    28692    28802 1
   29876    28694    28695 1
   29877    28694    28727 1
   29878    28694    28728 1
   29879    28694    28729 1
   29880    28695    28696 1
   29881    28695    28730 1
   29882    28695    28731 1
   29883    28696    28697 1
   29884    28696    28732 1
   29885    28696    28733 1
   29886    28697    28698 1
   29887    28697    28734 1
   29888    28697    28735 1
   29889    28698    28699 1
   29890    28698    28736 1
   29891    28698    28737 1
   29892    28699    28700 1
   29893    28699    28738 1
   29894    28699    28739 1
   29895    28700    28701 1
   29896    28700    28740 1
   29897    28700    28741 1
   29898    28701    28702 1
   29899    28701    28742 1
   29900    28701    28743 1
   29901    28702    28703 1
   29902    28702    28709 1
   29903    28702    28744 1
   29904    28703    28704 1
   29905    28703    28745 1
   29906    28703    28746 1
   29907    28704    28705 1
   29908    28704    28747 1
   29909    28704    28748 1
   29910    28705    28706 1
   29911    28705    28749 1
   29912    28705    28750 1
   29913    28706    28707 1
   29914    28706    28751 1
   29915    28706    28752 1
   29916    28707    28708 1
   29917    28707    28753 1
   29918    28707    28754 1
   29919    28708    28755 1
   29920    28708    28756 1
   29921    28708    28757 1
   29922    28709    28710 1
   29923    28709    28758 1
   29924    28709    28759 1
   29925    28710    28711 1
   29926    28711    28712 1
   29927    28711    28760 1
   29928    28711    28761 1
   29929    28712    28713 1
   29930    28712    28719 1
   29931    28712    28762 1
   29932    28713    28714 1
   29933    28713    28763 1
   29934    28713    28764 1
   29935    28714    28715 1
   29936    28714    28765 1
   29937    28714    28766 1
   29938    28715    28716 1
   29939    28715    28767 1
   29940    28715    28768 1
   29941    28716    28717 1
   29942    28716    28769 1
   29943    28716    28770 1
   29944    28717    28718 1
   29945    28717    28771 1
   29946    28717    28772 1
   29947    28718    28773 1
   29948    28718    28774 1
   29949    28718    28775 1
   29950    28719    28720 1
   29951    28719    28776 1
   29952    28719    28777 1
   29953    28720    28721 1
   29954    28720    28778 1
   29955    28720    28779 1
   29956    28721    28722 1
   29957    28721    28780 1
   29958    28721    28781 1
   29959    28722    28723 1
   29960    28722    28782 1
   29961    28722    28783 1
   29962    28723    28724 1
   29963    28723    28784 1
   29964    28723    28785 1
   29965    28724    28725 1
   29966    28724    28786 1
   29967    28724    28787 1
   29968    28725    28726 1
   29969    28725    28788 1
   29970    28725    28789 1
   29971    28726    28790 1
   29972    28726    28791 1
   29973    28726    28792 1
   29974    28793    28794 1
   29975    28793    28800 1
   29976    28793    28832 1
   29977    28794    28795 1
   29978    28794    28798 1
   29979    28795    28796 1
   29980    28795    28799 1
   29981    28796    28797 1
   29982    28797    28798 1
   29983    28797    28808 1
   29984    28798    28804 1
   29985    28799    28800 1
   29986    28799    28803 1
   29987    28800    28801 1
   29988    28801    28802 1
   29989    28801    28805 1
   29990    28802    28803 1
   29991    28806    28807 1
   29992    28806    28814 1
   29993    28807    28808 1
   29994    28807    28815 1
   29995    28808    28809 1
   29996    28809    28810 1
   29997    28809    28813 1
   29998    28810    28811 1
   29999    28811    28812 1
   30000    28812    28813 1
   30001    28813    28814 1
   30002    28814    28924 1
   30003    28816    28817 1
   30004    28816    28849 1
   30005    28816    28850 1
   30006    28816    28851 1
   30007    28817    28818 1
   30008    28817    28852 1
   30009    28817    28853 1
   30010    28818    28819 1
   30011    28818    28854 1
   30012    28818    28855 1
   30013    28819    28820 1
   30014    28819    28856 1
   30015    28819    28857 1
   30016    28820    28821 1
   30017    28820    28858 1
   30018    28820    28859 1
   30019    28821    28822 1
   30020    28821    28860 1
   30021    28821    28861 1
   30022    28822    28823 1
   30023    28822    28862 1
   30024    28822    28863 1
   30025    28823    28824 1
   30026    28823    28864 1
   30027    28823    28865 1
   30028    28824    28825 1
   30029    28824    28831 1
   30030    28824    28866 1
   30031    28825    28826 1
   30032    28825    28867 1
   30033    28825    28868 1
   30034    28826    28827 1
   30035    28826    28869 1
   30036    28826    28870 1
   30037    28827    28828 1
   30038    28827    28871 1
   30039    28827    28872 1
   30040    28828    28829 1
   30041    28828    28873 1
   30042    28828    28874 1
   30043    28829    28830 1
   30044    28829    28875 1
   30045    28829    28876 1
   30046    28830    28877 1
   30047    28830    28878 1
   30048    28830    28879 1
   30049    28831    28832 1
   30050    28831    28880 1
   30051    28831    28881 1
   30052    28832    28833 1
   30053    28833    28834 1
   30054    28833    28882 1
   30055    28833    28883 1
   30056    28834    28835 1
   30057    28834    28841 1
   30058    28834    28884 1
   30059    28835    28836 1
   30060    28835    28885 1
   30061    28835    28886 1
   30062    28836    28837 1
   30063    28836    28887 1
   30064    28836    28888 1
   30065    28837    28838 1
   30066    28837    28889 1
   30067    28837    28890 1
   30068    28838    28839 1
   30069    28838    28891 1
   30070    28838    28892 1
   30071    28839    28840 1
   30072    28839    28893 1
   30073    28839    28894 1
   30074    28840    28895 1
   30075    28840    28896 1
   30076    28840    28897 1
   30077    28841    28842 1
   30078    28841    28898 1
   30079    28841    28899 1
   30080    28842    28843 1
   30081    28842    28900 1
   30082    28842    28901 1
   30083    28843    28844 1
   30084    28843    28902 1
   30085    28843    28903 1
   30086    28844    28845 1
   30087    28844    28904 1
   30088    28844    28905 1
   30089    28845    28846 1
   30090    28845    28906 1
   30091    28845    28907 1
   30092    28846    28847 1
   30093    28846    28908 1
   30094    28846    28909 1
   30095    28847    28848 1
   30096    28847    28910 1
   30097    28847    28911 1
   30098    28848    28912 1
   30099    28848    28913 1
   30100    28848    28914 1
   30101    28915    28916 1
   30102    28915    28922 1
   30103    28915    28954 1
   30104    28916    28917 1
   30105    28916    28920 1
   30106    28917    28918 1
   30107    28917    28921 1
   30108    28918    28919 1
   30109    28919    28920 1
   30110    28919    28930 1
   30111    28920    28926 1
   30112    28921    28922 1
   30113    28921    28925 1
   30114    28922    28923 1
   30115    28923    28924 1
   30116    28923    28927 1
   30117    28924    28925 1
   30118    28928    28929 1
   30119    28928    28936 1
   30120    28929    28930 1
   30121    28929    28937 1
   30122    28930    28931 1
   30123    28931    28932 1
   30124    28931    28935 1
   30125    28932    28933 1
   30126    28933    28934 1
   30127    28934    28935 1
   30128    28935    28936 1
   30129    28936    29046 1
   30130    28938    28939 1
   30131    28938    28971 1
   30132    28938    28972 1
   30133    28938    28973 1
   30134    28939    28940 1
   30135    28939    28974 1
   30136    28939    28975 1
   30137    28940    28941 1
   30138    28940    28976 1
   30139    28940    28977 1
   30140    28941    28942 1
   30141    28941    28978 1
   30142    28941    28979 1
   30143    28942    28943 1
   30144    28942    28980 1
   30145    28942    28981 1
   30146    28943    28944 1
   30147    28943    28982 1
   30148    28943    28983 1
   30149    28944    28945 1
   30150    28944    28984 1
   30151    28944    28985 1
   30152    28945    28946 1
   30153    28945    28986 1
   30154    28945    28987 1
   30155    28946    28947 1
   30156    28946    28953 1
   30157    28946    28988 1
   30158    28947    28948 1
   30159    28947    28989 1
   30160    28947    28990 1
   30161    28948    28949 1
   30162    28948    28991 1
   30163    28948    28992 1
   30164    28949    28950 1
   30165    28949    28993 1
   30166    28949    28994 1
   30167    28950    28951 1
   30168    28950    28995 1
   30169    28950    28996 1
   30170    28951    28952 1
   30171    28951    28997 1
   30172    28951    28998 1
   30173    28952    28999 1
   30174    28952    29000 1
   30175    28952    29001 1
   30176    28953    28954 1
   30177    28953    29002 1
   30178    28953    29003 1
   30179    28954    28955 1
   30180    28955    28956 1
   30181    28955    29004 1
   30182    28955    29005 1
   30183    28956    28957 1
   30184    28956    28963 1
   30185    28956    29006 1
   30186    28957    28958 1
   30187    28957    29007 1
   30188    28957    29008 1
   30189    28958    28959 1
   30190    28958    29009 1
   30191    28958    29010 1
   30192    28959    28960 1
   30193    28959    29011 1
   30194    28959    29012 1
   30195    28960    28961 1
   30196    28960    29013 1
   30197    28960    29014 1
   30198    28961    28962 1
   30199    28961    29015 1
   30200    28961    29016 1
   30201    28962    29017 1
   30202    28962    29018 1
   30203    28962    29019 1
   30204    28963    28964 1
   30205    28963    29020 1
   30206    28963    29021 1
   30207    28964    28965 1
   30208    28964    29022 1
   30209    28964    29023 1
   30210    28965    28966 1
   30211    28965    29024 1
   30212    28965    29025 1
   30213    28966    28967 1
   30214    28966    29026 1
   30215    28966    29027 1
   30216    28967    28968 1
   30217    28967    29028 1
   30218    28967    29029 1
   30219    28968    28969 1
   30220    28968    29030 1
   30221    28968    29031 1
   30222    28969    28970 1
   30223    28969    29032 1
   30224    28969    29033 1
   30225    28970    29034 1
   30226    28970    29035 1
   30227    28970    29036 1
   30228    29037    29038 1
   30229    29037    29044 1
   30230    29037    29076 1
   30231    29038    29039 1
   30232    29038    29042 1
   30233    29039    29040 1
   30234    29039    29043 1
   30235    29040    29041 1
   30236    29041    29042 1
   30237    29041    29052 1
   30238    29042    29048 1
   30239    29043    29044 1
   30240    29043    29047 1
   30241    29044    29045 1
   30242    29045    29046 1
   30243    29045    29049 1
   30244    29046    29047 1
   30245    29050    29051 1
   30246    29050    29058 1
   30247    29051    29052 1
   30248    29051    29059 1
   30249    29052    29053 1
   30250    29053    29054 1
   30251    29053    29057 1
   30252    29054    29055 1
   30253    29055    29056 1
   30254    29056    29057 1
   30255    29057    29058 1
   30256    29058    29168 1
   30257    29060    29061 1
   30258    29060    29093 1
   30259    29060    29094 1
   30260    29060    29095 1
   30261    29061    29062 1
   30262    29061    29096 1
   30263    29061    29097 1
   30264    29062    29063 1
   30265    29062    29098 1
   30266    29062    29099 1
   30267    29063    29064 1
   30268    29063    29100 1
   30269    29063    29101 1
   30270    29064    29065 1
   30271    29064    29102 1
   30272    29064    29103 1
   30273    29065    29066 1
   30274    29065    29104 1
   30275    29065    29105 1
   30276    29066    29067 1
   30277    29066    29106 1
   30278    29066    29107 1
   30279    29067    29068 1
   30280    29067    29108 1
   30281    29067    29109 1
   30282    29068    29069 1
   30283    29068    29075 1
   30284    29068    29110 1
   30285    29069    29070 1
   30286    29069    29111 1
   30287    29069    29112 1
   30288    29070    29071 1
   30289    29070    29113 1
   30290    29070    29114 1
   30291    29071    29072 1
   30292    29071    29115 1
   30293    29071    29116 1
   30294    29072    29073 1
   30295    29072    29117 1
   30296    29072    29118 1
   30297    29073    29074 1
   30298    29073    29119 1
   30299    29073    29120 1
   30300    29074    29121 1
   30301    29074    29122 1
   30302    29074    29123 1
   30303    29075    29076 1
   30304    29075    29124 1
   30305    29075    29125 1
   30306    29076    29077 1
   30307    29077    29078 1
   30308    29077    29126 1
   30309    29077    29127 1
   30310    29078    29079 1
   30311    29078    29085 1
   30312    29078    29128 1
   30313    29079    29080 1
   30314    29079    29129 1
   30315    29079    29130 1
   30316    29080    29081 1
   30317    29080    29131 1
   30318    29080    29132 1
   30319    29081    29082 1
   30320    29081    29133 1
   30321    29081    29134 1
   30322    29082    29083 1
   30323    29082    29135 1
   30324    29082    29136 1
   30325    29083    29084 1
   30326    29083    29137 1
   30327    29083    29138 1
   30328    29084    29139 1
   30329    29084    29140 1
   30330    29084    29141 1
   30331    29085    29086 1
   30332    29085    29142 1
   30333    29085    29143 1
   30334    29086    29087 1
   30335    29086    29144 1
   30336    29086    29145 1
   30337    29087    29088 1
   30338    29087    29146 1
   30339    29087    29147 1
   30340    29088    29089 1
   30341    29088    29148 1
   30342    29088    29149 1
   30343    29089    29090 1
   30344    29089    29150 1
   30345    29089    29151 1
   30346    29090    29091 1
   30347    29090    29152 1
   30348    29090    29153 1
   30349    29091    29092 1
   30350    29091    29154 1
   30351    29091    29155 1
   30352    29092    29156 1
   30353    29092    29157 1
   30354    29092    29158 1
   30355    29159    29160 1
   30356    29159    29166 1
   30357    29159    29198 1
   30358    29160    29161 1
   30359    29160    29164 1
   30360    29161    29162 1
   30361    29161    29165 1
   30362    29162    29163 1
   30363    29163    29164 1
   30364    29163    29174 1
   30365    29164    29170 1
   30366    29165    29166 1
   30367    29165    29169 1
   30368    29166    29167 1
   30369    29167    29168 1
   30370    29167    29171 1
   30371    29168    29169 1
   30372    29172    29173 1
   30373    29172    29180 1
   30374    29173    29174 1
   30375    29173    29181 1
   30376    29174    29175 1
   30377    29175    29176 1
   30378    29175    29179 1
   30379    29176    29177 1
   30380    29177    29178 1
   30381    29178    29179 1
   30382    29179    29180 1
   30383    29180    29290 1
   30384    29182    29183 1
   30385    29182    29215 1
   30386    29182    29216 1
   30387    29182    29217 1
   30388    29183    29184 1
   30389    29183    29218 1
   30390    29183    29219 1
   30391    29184    29185 1
   30392    29184    29220 1
   30393    29184    29221 1
   30394    29185    29186 1
   30395    29185    29222 1
   30396    29185    29223 1
   30397    29186    29187 1
   30398    29186    29224 1
   30399    29186    29225 1
   30400    29187    29188 1
   30401    29187    29226 1
   30402    29187    29227 1
   30403    29188    29189 1
   30404    29188    29228 1
   30405    29188    29229 1
   30406    29189    29190 1
   30407    29189    29230 1
   30408    29189    29231 1
   30409    29190    29191 1
   30410    29190    29197 1
   30411    29190    29232 1
   30412    29191    29192 1
   30413    29191    29233 1
   30414    29191    29234 1
   30415    29192    29193 1
   30416    29192    29235 1
   30417    29192    29236 1
   30418    29193    29194 1
   30419    29193    29237 1
   30420    29193    29238 1
   30421    29194    29195 1
   30422    29194    29239 1
   30423    29194    29240 1
   30424    29195    29196 1
   30425    29195    29241 1
   30426    29195    29242 1
   30427    29196    29243 1
   30428    29196    29244 1
   30429    29196    29245 1
   30430    29197    29198 1
   30431    29197    29246 1
   30432    29197    29247 1
   30433    29198    29199 1
   30434    29199    29200 1
   30435    29199    29248 1
   30436    29199    29249 1
   30437    29200    29201 1
   30438    29200    29207 1
   30439    29200    29250 1
   30440    29201    29202 1
   30441    29201    29251 1
   30442    29201    29252 1
   30443    29202    29203 1
   30444    29202    29253 1
   30445    29202    29254 1
   30446    29203    29204 1
   30447    29203    29255 1
   30448    29203    29256 1
   30449    29204    29205 1
   30450    29204    29257 1
   30451    29204    29258 1
   30452    29205    29206 1
   30453    29205    29259 1
   30454    29205    29260 1
   30455    29206    29261 1
   30456    29206    29262 1
   30457    29206    29263 1
   30458    29207    29208 1
   30459    29207    29264 1
   30460    29207    29265 1
   30461    29208    29209 1
   30462    29208    29266 1
   30463    29208    29267 1
   30464    29209    29210 1
   30465    29209    29268 1
   30466    29209    29269 1
   30467    29210    29211 1
   30468    29210    29270 1
   30469    29210    29271 1
   30470    29211    29212 1
   30471    29211    29272 1
   30472    29211    29273 1
   30473    29212    29213 1
   30474    29212    29274 1
   30475    29212    29275 1
   30476    29213    29214 1
   30477    29213    29276 1
   30478    29213    29277 1
   30479    29214    29278 1
   30480    29214    29279 1
   30481    29214    29280 1
   30482    29281    29282 1
   30483    29281    29288 1
   30484    29281    29320 1
   30485    29282    29283 1
   30486    29282    29286 1
   30487    29283    29284 1
   30488    29283    29287 1
   30489    29284    29285 1
   30490    29285    29286 1
   30491    29285    29296 1
   30492    29286    29292 1
   30493    29287    29288 1
   30494    29287    29291 1
   30495    29288    29289 1
   30496    29289    29290 1
   30497    29289    29293 1
   30498    29290    29291 1
   30499    29294    29295 1
   30500    29294    29302 1
   30501    29295    29296 1
   30502    29295    29303 1
   30503    29296    29297 1
   30504    29297    29298 1
   30505    29297    29301 1
   30506    29298    29299 1
   30507    29299    29300 1
   30508    29300    29301 1
   30509    29301    29302 1
   30510    29302    29412 1
   30511    29304    29305 1
   30512    29304    29337 1
   30513    29304    29338 1
   30514    29304    29339 1
   30515    29305    29306 1
   30516    29305    29340 1
   30517    29305    29341 1
   30518    29306    29307 1
   30519    29306    29342 1
   30520    29306    29343 1
   30521    29307    29308 1
   30522    29307    29344 1
   30523    29307    29345 1
   30524    29308    29309 1
   30525    29308    29346 1
   30526    29308    29347 1
   30527    29309    29310 1
   30528    29309    29348 1
   30529    29309    29349 1
   30530    29310    29311 1
   30531    29310    29350 1
   30532    29310    29351 1
   30533    29311    29312 1
   30534    29311    29352 1
   30535    29311    29353 1
   30536    29312    29313 1
   30537    29312    29319 1
   30538    29312    29354 1
   30539    29313    29314 1
   30540    29313    29355 1
   30541    29313    29356 1
   30542    29314    29315 1
   30543    29314    29357 1
   30544    29314    29358 1
   30545    29315    29316 1
   30546    29315    29359 1
   30547    29315    29360 1
   30548    29316    29317 1
   30549    29316    29361 1
   30550    29316    29362 1
   30551    29317    29318 1
   30552    29317    29363 1
   30553    29317    29364 1
   30554    29318    29365 1
   30555    29318    29366 1
   30556    29318    29367 1
   30557    29319    29320 1
   30558    29319    29368 1
   30559    29319    29369 1
   30560    29320    29321 1
   30561    29321    29322 1
   30562    29321    29370 1
   30563    29321    29371 1
   30564    29322    29323 1
   30565    29322    29329 1
   30566    29322    29372 1
   30567    29323    29324 1
   30568    29323    29373 1
   30569    29323    29374 1
   30570    29324    29325 1
   30571    29324    29375 1
   30572    29324    29376 1
   30573    29325    29326 1
   30574    29325    29377 1
   30575    29325    29378 1
   30576    29326    29327 1
   30577    29326    29379 1
   30578    29326    29380 1
   30579    29327    29328 1
   30580    29327    29381 1
   30581    29327    29382 1
   30582    29328    29383 1
   30583    29328    29384 1
   30584    29328    29385 1
   30585    29329    29330 1
   30586    29329    29386 1
   30587    29329    29387 1
   30588    29330    29331 1
   30589    29330    29388 1
   30590    29330    29389 1
   30591    29331    29332 1
   30592    29331    29390 1
   30593    29331    29391 1
   30594    29332    29333 1
   30595    29332    29392 1
   30596    29332    29393 1
   30597    29333    29334 1
   30598    29333    29394 1
   30599    29333    29395 1
   30600    29334    29335 1
   30601    29334    29396 1
   30602    29334    29397 1
   30603    29335    29336 1
   30604    29335    29398 1
   30605    29335    29399 1
   30606    29336    29400 1
   30607    29336    29401 1
   30608    29336    29402 1
   30609    29403    29404 1
   30610    29403    29410 1
   30611    29403    29442 1
   30612    29404    29405 1
   30613    29404    29408 1
   30614    29405    29406 1
   30615    29405    29409 1
   30616    29406    29407 1
   30617    29407    29408 1
   30618    29407    29418 1
   30619    29408    29414 1
   30620    29409    29410 1
   30621    29409    29413 1
   30622    29410    29411 1
   30623    29411    29412 1
   30624    29411    29415 1
   30625    29412    29413 1
   30626    29416    29417 1
   30627    29416    29424 1
   30628    29417    29418 1
   30629    29417    29425 1
   30630    29418    29419 1
   30631    29419    29420 1
   30632    29419    29423 1
   30633    29420    29421 1
   30634    29421    29422 1
   30635    29422    29423 1
   30636    29423    29424 1
   30637    29424    29534 1
   30638    29426    29427 1
   30639    29426    29459 1
   30640    29426    29460 1
   30641    29426    29461 1
   30642    29427    29428 1
   30643    29427    29462 1
   30644    29427    29463 1
   30645    29428    29429 1
   30646    29428    29464 1
   30647    29428    29465 1
   30648    29429    29430 1
   30649    29429    29466 1
   30650    29429    29467 1
   30651    29430    29431 1
   30652    29430    29468 1
   30653    29430    29469 1
   30654    29431    29432 1
   30655    29431    29470 1
   30656    29431    29471 1
   30657    29432    29433 1
   30658    29432    29472 1
   30659    29432    29473 1
   30660    29433    29434 1
   30661    29433    29474 1
   30662    29433    29475 1
   30663    29434    29435 1
   30664    29434    29441 1
   30665    29434    29476 1
   30666    29435    29436 1
   30667    29435    29477 1
   30668    29435    29478 1
   30669    29436    29437 1
   30670    29436    29479 1
   30671    29436    29480 1
   30672    29437    29438 1
   30673    29437    29481 1
   30674    29437    29482 1
   30675    29438    29439 1
   30676    29438    29483 1
   30677    29438    29484 1
   30678    29439    29440 1
   30679    29439    29485 1
   30680    29439    29486 1
   30681    29440    29487 1
   30682    29440    29488 1
   30683    29440    29489 1
   30684    29441    29442 1
   30685    29441    29490 1
   30686    29441    29491 1
   30687    29442    29443 1
   30688    29443    29444 1
   30689    29443    29492 1
   30690    29443    29493 1
   30691    29444    29445 1
   30692    29444    29451 1
   30693    29444    29494 1
   30694    29445    29446 1
   30695    29445    29495 1
   30696    29445    29496 1
   30697    29446    29447 1
   30698    29446    29497 1
   30699    29446    29498 1
   30700    29447    29448 1
   30701    29447    29499 1
   30702    29447    29500 1
   30703    29448    29449 1
   30704    29448    29501 1
   30705    29448    29502 1
   30706    29449    29450 1
   30707    29449    29503 1
   30708    29449    29504 1
   30709    29450    29505 1
   30710    29450    29506 1
   30711    29450    29507 1
   30712    29451    29452 1
   30713    29451    29508 1
   30714    29451    29509 1
   30715    29452    29453 1
   30716    29452    29510 1
   30717    29452    29511 1
   30718    29453    29454 1
   30719    29453    29512 1
   30720    29453    29513 1
   30721    29454    29455 1
   30722    29454    29514 1
   30723    29454    29515 1
   30724    29455    29456 1
   30725    29455    29516 1
   30726    29455    29517 1
   30727    29456    29457 1
   30728    29456    29518 1
   30729    29456    29519 1
   30730    29457    29458 1
   30731    29457    29520 1
   30732    29457    29521 1
   30733    29458    29522 1
   30734    29458    29523 1
   30735    29458    29524 1
   30736    29525    29526 1
   30737    29525    29532 1
   30738    29525    29564 1
   30739    29526    29527 1
   30740    29526    29530 1
   30741    29527    29528 1
   30742    29527    29531 1
   30743    29528    29529 1
   30744    29529    29530 1
   30745    29529    29540 1
   30746    29530    29536 1
   30747    29531    29532 1
   30748    29531    29535 1
   30749    29532    29533 1
   30750    29533    29534 1
   30751    29533    29537 1
   30752    29534    29535 1
   30753    29538    29539 1
   30754    29538    29546 1
   30755    29539    29540 1
   30756    29539    29547 1
   30757    29540    29541 1
   30758    29541    29542 1
   30759    29541    29545 1
   30760    29542    29543 1
   30761    29543    29544 1
   30762    29544    29545 1
   30763    29545    29546 1
   30764    29546    29656 1
   30765    29548    29549 1
   30766    29548    29581 1
   30767    29548    29582 1
   30768    29548    29583 1
   30769    29549    29550 1
   30770    29549    29584 1
   30771    29549    29585 1
   30772    29550    29551 1
   30773    29550    29586 1
   30774    29550    29587 1
   30775    29551    29552 1
   30776    29551    29588 1
   30777    29551    29589 1
   30778    29552    29553 1
   30779    29552    29590 1
   30780    29552    29591 1
   30781    29553    29554 1
   30782    29553    29592 1
   30783    29553    29593 1
   30784    29554    29555 1
   30785    29554    29594 1
   30786    29554    29595 1
   30787    29555    29556 1
   30788    29555    29596 1
   30789    29555    29597 1
   30790    29556    29557 1
   30791    29556    29563 1
   30792    29556    29598 1
   30793    29557    29558 1
   30794    29557    29599 1
   30795    29557    29600 1
   30796    29558    29559 1
   30797    29558    29601 1
   30798    29558    29602 1
   30799    29559    29560 1
   30800    29559    29603 1
   30801    29559    29604 1
   30802    29560    29561 1
   30803    29560    29605 1
   30804    29560    29606 1
   30805    29561    29562 1
   30806    29561    29607 1
   30807    29561    29608 1
   30808    29562    29609 1
   30809    29562    29610 1
   30810    29562    29611 1
   30811    29563    29564 1
   30812    29563    29612 1
   30813    29563    29613 1
   30814    29564    29565 1
   30815    29565    29566 1
   30816    29565    29614 1
   30817    29565    29615 1
   30818    29566    29567 1
   30819    29566    29573 1
   30820    29566    29616 1
   30821    29567    29568 1
   30822    29567    29617 1
   30823    29567    29618 1
   30824    29568    29569 1
   30825    29568    29619 1
   30826    29568    29620 1
   30827    29569    29570 1
   30828    29569    29621 1
   30829    29569    29622 1
   30830    29570    29571 1
   30831    29570    29623 1
   30832    29570    29624 1
   30833    29571    29572 1
   30834    29571    29625 1
   30835    29571    29626 1
   30836    29572    29627 1
   30837    29572    29628 1
   30838    29572    29629 1
   30839    29573    29574 1
   30840    29573    29630 1
   30841    29573    29631 1
   30842    29574    29575 1
   30843    29574    29632 1
   30844    29574    29633 1
   30845    29575    29576 1
   30846    29575    29634 1
   30847    29575    29635 1
   30848    29576    29577 1
   30849    29576    29636 1
   30850    29576    29637 1
   30851    29577    29578 1
   30852    29577    29638 1
   30853    29577    29639 1
   30854    29578    29579 1
   30855    29578    29640 1
   30856    29578    29641 1
   30857    29579    29580 1
   30858    29579    29642 1
   30859    29579    29643 1
   30860    29580    29644 1
   30861    29580    29645 1
   30862    29580    29646 1
   30863    29647    29648 1
   30864    29647    29654 1
   30865    29647    29686 1
   30866    29648    29649 1
   30867    29648    29652 1
   30868    29649    29650 1
   30869    29649    29653 1
   30870    29650    29651 1
   30871    29651    29652 1
   30872    29651    29662 1
   30873    29652    29658 1
   30874    29653    29654 1
   30875    29653    29657 1
   30876    29654    29655 1
   30877    29655    29656 1
   30878    29655    29659 1
   30879    29656    29657 1
   30880    29660    29661 1
   30881    29660    29668 1
   30882    29661    29662 1
   30883    29661    29669 1
   30884    29662    29663 1
   30885    29663    29664 1
   30886    29663    29667 1
   30887    29664    29665 1
   30888    29665    29666 1
   30889    29666    29667 1
   30890    29667    29668 1
   30891    29668    29778 1
   30892    29670    29671 1
   30893    29670    29703 1
   30894    29670    29704 1
   30895    29670    29705 1
   30896    29671    29672 1
   30897    29671    29706 1
   30898    29671    29707 1
   30899    29672    29673 1
   30900    29672    29708 1
   30901    29672    29709 1
   30902    29673    29674 1
   30903    29673    29710 1
   30904    29673    29711 1
   30905    29674    29675 1
   30906    29674    29712 1
   30907    29674    29713 1
   30908    29675    29676 1
   30909    29675    29714 1
   30910    29675    29715 1
   30911    29676    29677 1
   30912    29676    29716 1
   30913    29676    29717 1
   30914    29677    29678 1
   30915    29677    29718 1
   30916    29677    29719 1
   30917    29678    29679 1
   30918    29678    29685 1
   30919    29678    29720 1
   30920    29679    29680 1
   30921    29679    29721 1
   30922    29679    29722 1
   30923    29680    29681 1
   30924    29680    29723 1
   30925    29680    29724 1
   30926    29681    29682 1
   30927    29681    29725 1
   30928    29681    29726 1
   30929    29682    29683 1
   30930    29682    29727 1
   30931    29682    29728 1
   30932    29683    29684 1
   30933    29683    29729 1
   30934    29683    29730 1
   30935    29684    29731 1
   30936    29684    29732 1
   30937    29684    29733 1
   30938    29685    29686 1
   30939    29685    29734 1
   30940    29685    29735 1
   30941    29686    29687 1
   30942    29687    29688 1
   30943    29687    29736 1
   30944    29687    29737 1
   30945    29688    29689 1
   30946    29688    29695 1
   30947    29688    29738 1
   30948    29689    29690 1
   30949    29689    29739 1
   30950    29689    29740 1
   30951    29690    29691 1
   30952    29690    29741 1
   30953    29690    29742 1
   30954    29691    29692 1
   30955    29691    29743 1
   30956    29691    29744 1
   30957    29692    29693 1
   30958    29692    29745 1
   30959    29692    29746 1
   30960    29693    29694 1
   30961    29693    29747 1
   30962    29693    29748 1
   30963    29694    29749 1
   30964    29694    29750 1
   30965    29694    29751 1
   30966    29695    29696 1
   30967    29695    29752 1
   30968    29695    29753 1
   30969    29696    29697 1
   30970    29696    29754 1
   30971    29696    29755 1
   30972    29697    29698 1
   30973    29697    29756 1
   30974    29697    29757 1
   30975    29698    29699 1
   30976    29698    29758 1
   30977    29698    29759 1
   30978    29699    29700 1
   30979    29699    29760 1
   30980    29699    29761 1
   30981    29700    29701 1
   30982    29700    29762 1
   30983    29700    29763 1
   30984    29701    29702 1
   30985    29701    29764 1
   30986    29701    29765 1
   30987    29702    29766 1
   30988    29702    29767 1
   30989    29702    29768 1
   30990    29769    29770 1
   30991    29769    29776 1
   30992    29769    29808 1
   30993    29770    29771 1
   30994    29770    29774 1
   30995    29771    29772 1
   30996    29771    29775 1
   30997    29772    29773 1
   30998    29773    29774 1
   30999    29773    29784 1
   31000    29774    29780 1
   31001    29775    29776 1
   31002    29775    29779 1
   31003    29776    29777 1
   31004    29777    29778 1
   31005    29777    29781 1
   31006    29778    29779 1
   31007    29782    29783 1
   31008    29782    29790 1
   31009    29783    29784 1
   31010    29783    29791 1
   31011    29784    29785 1
   31012    29785    29786 1
   31013    29785    29789 1
   31014    29786    29787 1
   31015    29787    29788 1
   31016    29788    29789 1
   31017    29789    29790 1
   31018    29790    29900 1
   31019    29792    29793 1
   31020    29792    29825 1
   31021    29792    29826 1
   31022    29792    29827 1
   31023    29793    29794 1
   31024    29793    29828 1
   31025    29793    29829 1
   31026    29794    29795 1
   31027    29794    29830 1
   31028    29794    29831 1
   31029    29795    29796 1
   31030    29795    29832 1
   31031    29795    29833 1
   31032    29796    29797 1
   31033    29796    29834 1
   31034    29796    29835 1
   31035    29797    29798 1
   31036    29797    29836 1
   31037    29797    29837 1
   31038    29798    29799 1
   31039    29798    29838 1
   31040    29798    29839 1
   31041    29799    29800 1
   31042    29799    29840 1
   31043    29799    29841 1
   31044    29800    29801 1
   31045    29800    29807 1
   31046    29800    29842 1
   31047    29801    29802 1
   31048    29801    29843 1
   31049    29801    29844 1
   31050    29802    29803 1
   31051    29802    29845 1
   31052    29802    29846 1
   31053    29803    29804 1
   31054    29803    29847 1
   31055    29803    29848 1
   31056    29804    29805 1
   31057    29804    29849 1
   31058    29804    29850 1
   31059    29805    29806 1
   31060    29805    29851 1
   31061    29805    29852 1
   31062    29806    29853 1
   31063    29806    29854 1
   31064    29806    29855 1
   31065    29807    29808 1
   31066    29807    29856 1
   31067    29807    29857 1
   31068    29808    29809 1
   31069    29809    29810 1
   31070    29809    29858 1
   31071    29809    29859 1
   31072    29810    29811 1
   31073    29810    29817 1
   31074    29810    29860 1
   31075    29811    29812 1
   31076    29811    29861 1
   31077    29811    29862 1
   31078    29812    29813 1
   31079    29812    29863 1
   31080    29812    29864 1
   31081    29813    29814 1
   31082    29813    29865 1
   31083    29813    29866 1
   31084    29814    29815 1
   31085    29814    29867 1
   31086    29814    29868 1
   31087    29815    29816 1
   31088    29815    29869 1
   31089    29815    29870 1
   31090    29816    29871 1
   31091    29816    29872 1
   31092    29816    29873 1
   31093    29817    29818 1
   31094    29817    29874 1
   31095    29817    29875 1
   31096    29818    29819 1
   31097    29818    29876 1
   31098    29818    29877 1
   31099    29819    29820 1
   31100    29819    29878 1
   31101    29819    29879 1
   31102    29820    29821 1
   31103    29820    29880 1
   31104    29820    29881 1
   31105    29821    29822 1
   31106    29821    29882 1
   31107    29821    29883 1
   31108    29822    29823 1
   31109    29822    29884 1
   31110    29822    29885 1
   31111    29823    29824 1
   31112    29823    29886 1
   31113    29823    29887 1
   31114    29824    29888 1
   31115    29824    29889 1
   31116    29824    29890 1
   31117    29891    29892 1
   31118    29891    29898 1
   31119    29891    29930 1
   31120    29892    29893 1
   31121    29892    29896 1
   31122    29893    29894 1
   31123    29893    29897 1
   31124    29894    29895 1
   31125    29895    29896 1
   31126    29895    29906 1
   31127    29896    29902 1
   31128    29897    29898 1
   31129    29897    29901 1
   31130    29898    29899 1
   31131    29899    29900 1
   31132    29899    29903 1
   31133    29900    29901 1
   31134    29904    29905 1
   31135    29904    29912 1
   31136    29905    29906 1
   31137    29905    29913 1
   31138    29906    29907 1
   31139    29907    29908 1
   31140    29907    29911 1
   31141    29908    29909 1
   31142    29909    29910 1
   31143    29910    29911 1
   31144    29911    29912 1
   31145    29912    30022 1
   31146    29914    29915 1
   31147    29914    29947 1
   31148    29914    29948 1
   31149    29914    29949 1
   31150    29915    29916 1
   31151    29915    29950 1
   31152    29915    29951 1
   31153    29916    29917 1
   31154    29916    29952 1
   31155    29916    29953 1
   31156    29917    29918 1
   31157    29917    29954 1
   31158    29917    29955 1
   31159    29918    29919 1
   31160    29918    29956 1
   31161    29918    29957 1
   31162    29919    29920 1
   31163    29919    29958 1
   31164    29919    29959 1
   31165    29920    29921 1
   31166    29920    29960 1
   31167    29920    29961 1
   31168    29921    29922 1
   31169    29921    29962 1
   31170    29921    29963 1
   31171    29922    29923 1
   31172    29922    29929 1
   31173    29922    29964 1
   31174    29923    29924 1
   31175    29923    29965 1
   31176    29923    29966 1
   31177    29924    29925 1
   31178    29924    29967 1
   31179    29924    29968 1
   31180    29925    29926 1
   31181    29925    29969 1
   31182    29925    29970 1
   31183    29926    29927 1
   31184    29926    29971 1
   31185    29926    29972 1
   31186    29927    29928 1
   31187    29927    29973 1
   31188    29927    29974 1
   31189    29928    29975 1
   31190    29928    29976 1
   31191    29928    29977 1
   31192    29929    29930 1
   31193    29929    29978 1
   31194    29929    29979 1
   31195    29930    29931 1
   31196    29931    29932 1
   31197    29931    29980 1
   31198    29931    29981 1
   31199    29932    29933 1
   31200    29932    29939 1
   31201    29932    29982 1
   31202    29933    29934 1
   31203    29933    29983 1
   31204    29933    29984 1
   31205    29934    29935 1
   31206    29934    29985 1
   31207    29934    29986 1
   31208    29935    29936 1
   31209    29935    29987 1
   31210    29935    29988 1
   31211    29936    29937 1
   31212    29936    29989 1
   31213    29936    29990 1
   31214    29937    29938 1
   31215    29937    29991 1
   31216    29937    29992 1
   31217    29938    29993 1
   31218    29938    29994 1
   31219    29938    29995 1
   31220    29939    29940 1
   31221    29939    29996 1
   31222    29939    29997 1
   31223    29940    29941 1
   31224    29940    29998 1
   31225    29940    29999 1
   31226    29941    29942 1
   31227    29941    30000 1
   31228    29941    30001 1
   31229    29942    29943 1
   31230    29942    30002 1
   31231    29942    30003 1
   31232    29943    29944 1
   31233    29943    30004 1
   31234    29943    30005 1
   31235    29944    29945 1
   31236    29944    30006 1
   31237    29944    30007 1
   31238    29945    29946 1
   31239    29945    30008 1
   31240    29945    30009 1
   31241    29946    30010 1
   31242    29946    30011 1
   31243    29946    30012 1
   31244    30013    30014 1
   31245    30013    30020 1
   31246    30013    30052 1
   31247    30014    30015 1
   31248    30014    30018 1
   31249    30015    30016 1
   31250    30015    30019 1
   31251    30016    30017 1
   31252    30017    30018 1
   31253    30017    30028 1
   31254    30018    30024 1
   31255    30019    30020 1
   31256    30019    30023 1
   31257    30020    30021 1
   31258    30021    30022 1
   31259    30021    30025 1
   31260    30022    30023 1
   31261    30026    30027 1
   31262    30026    30034 1
   31263    30027    30028 1
   31264    30027    30035 1
   31265    30028    30029 1
   31266    30029    30030 1
   31267    30029    30033 1
   31268    30030    30031 1
   31269    30031    30032 1
   31270    30032    30033 1
   31271    30033    30034 1
   31272    30034    30144 1
   31273    30036    30037 1
   31274    30036    30069 1
   31275    30036    30070 1
   31276    30036    30071 1
   31277    30037    30038 1
   31278    30037    30072 1
   31279    30037    30073 1
   31280    30038    30039 1
   31281    30038    30074 1
   31282    30038    30075 1
   31283    30039    30040 1
   31284    30039    30076 1
   31285    30039    30077 1
   31286    30040    30041 1
   31287    30040    30078 1
   31288    30040    30079 1
   31289    30041    30042 1
   31290    30041    30080 1
   31291    30041    30081 1
   31292    30042    30043 1
   31293    30042    30082 1
   31294    30042    30083 1
   31295    30043    30044 1
   31296    30043    30084 1
   31297    30043    30085 1
   31298    30044    30045 1
   31299    30044    30051 1
   31300    30044    30086 1
   31301    30045    30046 1
   31302    30045    30087 1
   31303    30045    30088 1
   31304    30046    30047 1
   31305    30046    30089 1
   31306    30046    30090 1
   31307    30047    30048 1
   31308    30047    30091 1
   31309    30047    30092 1
   31310    30048    30049 1
   31311    30048    30093 1
   31312    30048    30094 1
   31313    30049    30050 1
   31314    30049    30095 1
   31315    30049    30096 1
   31316    30050    30097 1
   31317    30050    30098 1
   31318    30050    30099 1
   31319    30051    30052 1
   31320    30051    30100 1
   31321    30051    30101 1
   31322    30052    30053 1
   31323    30053    30054 1
   31324    30053    30102 1
   31325    30053    30103 1
   31326    30054    30055 1
   31327    30054    30061 1
   31328    30054    30104 1
   31329    30055    30056 1
   31330    30055    30105 1
   31331    30055    30106 1
   31332    30056    30057 1
   31333    30056    30107 1
   31334    30056    30108 1
   31335    30057    30058 1
   31336    30057    30109 1
   31337    30057    30110 1
   31338    30058    30059 1
   31339    30058    30111 1
   31340    30058    30112 1
   31341    30059    30060 1
   31342    30059    30113 1
   31343    30059    30114 1
   31344    30060    30115 1
   31345    30060    30116 1
   31346    30060    30117 1
   31347    30061    30062 1
   31348    30061    30118 1
   31349    30061    30119 1
   31350    30062    30063 1
   31351    30062    30120 1
   31352    30062    30121 1
   31353    30063    30064 1
   31354    30063    30122 1
   31355    30063    30123 1
   31356    30064    30065 1
   31357    30064    30124 1
   31358    30064    30125 1
   31359    30065    30066 1
   31360    30065    30126 1
   31361    30065    30127 1
   31362    30066    30067 1
   31363    30066    30128 1
   31364    30066    30129 1
   31365    30067    30068 1
   31366    30067    30130 1
   31367    30067    30131 1
   31368    30068    30132 1
   31369    30068    30133 1
   31370    30068    30134 1
   31371    30135    30136 1
   31372    30135    30142 1
   31373    30135    30174 1
   31374    30136    30137 1
   31375    30136    30140 1
   31376    30137    30138 1
   31377    30137    30141 1
   31378    30138    30139 1
   31379    30139    30140 1
   31380    30139    30150 1
   31381    30140    30146 1
   31382    30141    30142 1
   31383    30141    30145 1
   31384    30142    30143 1
   31385    30143    30144 1
   31386    30143    30147 1
   31387    30144    30145 1
   31388    30148    30149 1
   31389    30148    30156 1
   31390    30149    30150 1
   31391    30149    30157 1
   31392    30150    30151 1
   31393    30151    30152 1
   31394    30151    30155 1
   31395    30152    30153 1
   31396    30153    30154 1
   31397    30154    30155 1
   31398    30155    30156 1
   31399    30156    30266 1
   31400    30158    30159 1
   31401    30158    30191 1
   31402    30158    30192 1
   31403    30158    30193 1
   31404    30159    30160 1
   31405    30159    30194 1
   31406    30159    30195 1
   31407    30160    30161 1
   31408    30160    30196 1
   31409    30160    30197 1
   31410    30161    30162 1
   31411    30161    30198 1
   31412    30161    30199 1
   31413    30162    30163 1
   31414    30162    30200 1
   31415    30162    30201 1
   31416    30163    30164 1
   31417    30163    30202 1
   31418    30163    30203 1
   31419    30164    30165 1
   31420    30164    30204 1
   31421    30164    30205 1
   31422    30165    30166 1
   31423    30165    30206 1
   31424    30165    30207 1
   31425    30166    30167 1
   31426    30166    30173 1
   31427    30166    30208 1
   31428    30167    30168 1
   31429    30167    30209 1
   31430    30167    30210 1
   31431    30168    30169 1
   31432    30168    30211 1
   31433    30168    30212 1
   31434    30169    30170 1
   31435    30169    30213 1
   31436    30169    30214 1
   31437    30170    30171 1
   31438    30170    30215 1
   31439    30170    30216 1
   31440    30171    30172 1
   31441    30171    30217 1
   31442    30171    30218 1
   31443    30172    30219 1
   31444    30172    30220 1
   31445    30172    30221 1
   31446    30173    30174 1
   31447    30173    30222 1
   31448    30173    30223 1
   31449    30174    30175 1
   31450    30175    30176 1
   31451    30175    30224 1
   31452    30175    30225 1
   31453    30176    30177 1
   31454    30176    30183 1
   31455    30176    30226 1
   31456    30177    30178 1
   31457    30177    30227 1
   31458    30177    30228 1
   31459    30178    30179 1
   31460    30178    30229 1
   31461    30178    30230 1
   31462    30179    30180 1
   31463    30179    30231 1
   31464    30179    30232 1
   31465    30180    30181 1
   31466    30180    30233 1
   31467    30180    30234 1
   31468    30181    30182 1
   31469    30181    30235 1
   31470    30181    30236 1
   31471    30182    30237 1
   31472    30182    30238 1
   31473    30182    30239 1
   31474    30183    30184 1
   31475    30183    30240 1
   31476    30183    30241 1
   31477    30184    30185 1
   31478    30184    30242 1
   31479    30184    30243 1
   31480    30185    30186 1
   31481    30185    30244 1
   31482    30185    30245 1
   31483    30186    30187 1
   31484    30186    30246 1
   31485    30186    30247 1
   31486    30187    30188 1
   31487    30187    30248 1
   31488    30187    30249 1
   31489    30188    30189 1
   31490    30188    30250 1
   31491    30188    30251 1
   31492    30189    30190 1
   31493    30189    30252 1
   31494    30189    30253 1
   31495    30190    30254 1
   31496    30190    30255 1
   31497    30190    30256 1
   31498    30257    30258 1
   31499    30257    30264 1
   31500    30257    30296 1
   31501    30258    30259 1
   31502    30258    30262 1
   31503    30259    30260 1
   31504    30259    30263 1
   31505    30260    30261 1
   31506    30261    30262 1
   31507    30261    30272 1
   31508    30262    30268 1
   31509    30263    30264 1
   31510    30263    30267 1
   31511    30264    30265 1
   31512    30265    30266 1
   31513    30265    30269 1
   31514    30266    30267 1
   31515    30270    30271 1
   31516    30270    30278 1
   31517    30271    30272 1
   31518    30271    30279 1
   31519    30272    30273 1
   31520    30273    30274 1
   31521    30273    30277 1
   31522    30274    30275 1
   31523    30275    30276 1
   31524    30276    30277 1
   31525    30277    30278 1
   31526    30278    30388 1
   31527    30280    30281 1
   31528    30280    30313 1
   31529    30280    30314 1
   31530    30280    30315 1
   31531    30281    30282 1
   31532    30281    30316 1
   31533    30281    30317 1
   31534    30282    30283 1
   31535    30282    30318 1
   31536    30282    30319 1
   31537    30283    30284 1
   31538    30283    30320 1
   31539    30283    30321 1
   31540    30284    30285 1
   31541    30284    30322 1
   31542    30284    30323 1
   31543    30285    30286 1
   31544    30285    30324 1
   31545    30285    30325 1
   31546    30286    30287 1
   31547    30286    30326 1
   31548    30286    30327 1
   31549    30287    30288 1
   31550    30287    30328 1
   31551    30287    30329 1
   31552    30288    30289 1
   31553    30288    30295 1
   31554    30288    30330 1
   31555    30289    30290 1
   31556    30289    30331 1
   31557    30289    30332 1
   31558    30290    30291 1
   31559    30290    30333 1
   31560    30290    30334 1
   31561    30291    30292 1
   31562    30291    30335 1
   31563    30291    30336 1
   31564    30292    30293 1
   31565    30292    30337 1
   31566    30292    30338 1
   31567    30293    30294 1
   31568    30293    30339 1
   31569    30293    30340 1
   31570    30294    30341 1
   31571    30294    30342 1
   31572    30294    30343 1
   31573    30295    30296 1
   31574    30295    30344 1
   31575    30295    30345 1
   31576    30296    30297 1
   31577    30297    30298 1
   31578    30297    30346 1
   31579    30297    30347 1
   31580    30298    30299 1
   31581    30298    30305 1
   31582    30298    30348 1
   31583    30299    30300 1
   31584    30299    30349 1
   31585    30299    30350 1
   31586    30300    30301 1
   31587    30300    30351 1
   31588    30300    30352 1
   31589    30301    30302 1
   31590    30301    30353 1
   31591    30301    30354 1
   31592    30302    30303 1
   31593    30302    30355 1
   31594    30302    30356 1
   31595    30303    30304 1
   31596    30303    30357 1
   31597    30303    30358 1
   31598    30304    30359 1
   31599    30304    30360 1
   31600    30304    30361 1
   31601    30305    30306 1
   31602    30305    30362 1
   31603    30305    30363 1
   31604    30306    30307 1
   31605    30306    30364 1
   31606    30306    30365 1
   31607    30307    30308 1
   31608    30307    30366 1
   31609    30307    30367 1
   31610    30308    30309 1
   31611    30308    30368 1
   31612    30308    30369 1
   31613    30309    30310 1
   31614    30309    30370 1
   31615    30309    30371 1
   31616    30310    30311 1
   31617    30310    30372 1
   31618    30310    30373 1
   31619    30311    30312 1
   31620    30311    30374 1
   31621    30311    30375 1
   31622    30312    30376 1
   31623    30312    30377 1
   31624    30312    30378 1
   31625    30379    30380 1
   31626    30379    30386 1
   31627    30379    30418 1
   31628    30380    30381 1
   31629    30380    30384 1
   31630    30381    30382 1
   31631    30381    30385 1
   31632    30382    30383 1
   31633    30383    30384 1
   31634    30383    30394 1
   31635    30384    30390 1
   31636    30385    30386 1
   31637    30385    30389 1
   31638    30386    30387 1
   31639    30387    30388 1
   31640    30387    30391 1
   31641    30388    30389 1
   31642    30392    30393 1
   31643    30392    30400 1
   31644    30393    30394 1
   31645    30393    30401 1
   31646    30394    30395 1
   31647    30395    30396 1
   31648    30395    30399 1
   31649    30396    30397 1
   31650    30397    30398 1
   31651    30398    30399 1
   31652    30399    30400 1
   31653    30400    30502 1
   31654    30402    30403 1
   31655    30402    30435 1
   31656    30402    30436 1
   31657    30402    30437 1
   31658    30403    30404 1
   31659    30403    30438 1
   31660    30403    30439 1
   31661    30404    30405 1
   31662    30404    30440 1
   31663    30404    30441 1
   31664    30405    30406 1
   31665    30405    30442 1
   31666    30405    30443 1
   31667    30406    30407 1
   31668    30406    30444 1
   31669    30406    30445 1
   31670    30407    30408 1
   31671    30407    30446 1
   31672    30407    30447 1
   31673    30408    30409 1
   31674    30408    30448 1
   31675    30408    30449 1
   31676    30409    30410 1
   31677    30409    30450 1
   31678    30409    30451 1
   31679    30410    30411 1
   31680    30410    30417 1
   31681    30410    30452 1
   31682    30411    30412 1
   31683    30411    30453 1
   31684    30411    30454 1
   31685    30412    30413 1
   31686    30412    30455 1
   31687    30412    30456 1
   31688    30413    30414 1
   31689    30413    30457 1
   31690    30413    30458 1
   31691    30414    30415 1
   31692    30414    30459 1
   31693    30414    30460 1
   31694    30415    30416 1
   31695    30415    30461 1
   31696    30415    30462 1
   31697    30416    30463 1
   31698    30416    30464 1
   31699    30416    30465 1
   31700    30417    30418 1
   31701    30417    30466 1
   31702    30417    30467 1
   31703    30418    30419 1
   31704    30419    30420 1
   31705    30419    30468 1
   31706    30419    30469 1
   31707    30420    30421 1
   31708    30420    30427 1
   31709    30420    30470 1
   31710    30421    30422 1
   31711    30421    30471 1
   31712    30421    30472 1
   31713    30422    30423 1
   31714    30422    30473 1
   31715    30422    30474 1
   31716    30423    30424 1
   31717    30423    30475 1
   31718    30423    30476 1
   31719    30424    30425 1
   31720    30424    30477 1
   31721    30424    30478 1
   31722    30425    30426 1
   31723    30425    30479 1
   31724    30425    30480 1
   31725    30426    30481 1
   31726    30426    30482 1
   31727    30426    30483 1
   31728    30427    30428 1
   31729    30427    30484 1
   31730    30427    30485 1
   31731    30428    30429 1
   31732    30428    30486 1
   31733    30428    30487 1
   31734    30429    30430 1
   31735    30429    30488 1
   31736    30429    30489 1
   31737    30430    30431 1
   31738    30430    30490 1
   31739    30430    30491 1
   31740    30431    30432 1
   31741    30431    30492 1
   31742    30431    30493 1
   31743    30432    30433 1
   31744    30432    30494 1
   31745    30432    30495 1
   31746    30433    30434 1
   31747    30433    30496 1
   31748    30433    30497 1
   31749    30434    30498 1
   31750    30434    30499 1
   31751    30434    30500 1
@<TRIPOS>SUBSTRUCTURE
       1 RES             1 RESIDUE    0 **** ROOT      0
