@<TRIPOS>MOLECULE
RES
231 237 1 0 1
SMALL
NO_CHARGES
@<TRIPOS>CRYSIN
   31.2100    24.3040    27.3290    90.0000    90.0000    90.0000  1  1
@<TRIPOS>ATOM
       1 C            5.6210    -7.5960     2.1530 C             1 RES     
       2 C            4.5170    -6.8170     1.2820 C             1 RES     
       3 C            4.9030    -5.2950     1.1060 C             1 RES     
       4 C            6.3970    -4.9990     1.7950 C             1 RES     
       5 C            7.4760    -3.5890     2.0570 C             1 RES     
       6 C            8.6250    -3.1210     3.4030 C             1 RES     
       7 C            7.4500    -3.4640     4.2300 C             1 RES     
       8 C            6.3690    -4.9040     4.0350 C             1 RES     
       9 C            6.3830    -6.0960     2.8640 C             1 RES     
      10 C            7.8620    -2.4300     5.3040 C             1 RES     
      11 C            9.4090    -1.9420     5.1510 C             1 RES     
      12 C           10.5090    -2.9620     4.4380 C             1 RES     
      13 C            9.2190    -0.6310     4.3280 C             1 RES     
      14 C            7.9180    -0.2060     4.1170 C             1 RES     
      15 S            6.7290    -0.9810     5.1620 S             1 RES     
      16 S            3.2360    -4.3730     1.3010 S             1 RES     
      17 C            2.0500    -5.8320     1.0110 C             1 RES     
      18 C            2.9720    -7.0770     1.0630 C             1 RES     
      19 H            6.9020    -2.6910     1.7430 H             1 RES     
      20 H            5.3260    -4.5450     3.9240 H             1 RES     
      21 H           10.0110    -0.1350     3.7840 H             1 RES     
      22 H            7.5980     0.5590     3.3960 H             1 RES     
      23 H            2.6260    -8.0070     0.6180 H             1 RES     
      24 C            0.1960    -6.1430    -1.1700 C             1 RES     
      25 C            0.5050    -5.7210     0.3110 C             1 RES     
      26 C           -0.8170    -5.1610     1.0090 C             1 RES     
      27 N           -1.2550    -5.9400     2.1510 N             1 RES     
      28 S           -2.9610    -5.6100     2.3810 S             1 RES     
      29 N           -3.1780    -4.6810     0.8310 N             1 RES     
      30 C           -2.0560    -5.1840     0.0880 C             1 RES     
      31 C           -1.8170    -4.4160    -1.1930 C             1 RES     
      32 C           -0.6890    -5.1140    -1.9680 C             1 RES     
      33 H           -0.4640    -7.0490    -1.1180 H             1 RES     
      34 H           -2.7360    -4.3030    -1.8200 H             1 RES     
      35 H           -0.1540    -4.3600    -2.5730 H             1 RES     
      36 C            6.8150    -8.2870     1.2260 C             1 RES     
      37 C            7.4750    -9.6330     0.4210 C             1 RES     
      38 C            8.6840   -10.6240    -0.1310 C             1 RES     
      39 C            9.9880   -10.0560    -0.7290 C             1 RES     
      40 C            9.5640    -8.8930    -1.5990 C             1 RES     
      41 C            9.5400    -7.6800    -0.7290 C             1 RES     
      42 C           10.8060    -6.8400    -0.5710 C             1 RES     
      43 C           10.4140    -6.0310     0.5840 C             1 RES     
      44 C           11.1430    -4.8570     0.9750 C             1 RES     
      45 C           10.2780    -4.4430     2.1160 C             1 RES     
      46 C            9.4440    -5.4650     3.4090 C             1 RES     
      47 C            9.0080    -5.3300     5.1670 C             1 RES     
      48 C            7.7050    -5.1960     6.3260 C             1 RES     
      49 C            6.5690    -4.1130     6.9680 C             1 RES     
      50 C            5.1880    -3.6610     6.3200 C             1 RES     
      51 C            4.2360    -4.8290     6.1600 C             1 RES     
      52 H            7.2390    -8.5270     2.1410 H             1 RES     
      53 H            7.2370    -8.5290     2.1420 H             1 RES     
      54 H            8.4070    -9.5650     1.0360 H             1 RES     
      55 H            6.8000   -10.4410     0.7130 H             1 RES     
      56 H            9.0880   -11.4250     0.5390 H             1 RES     
      57 H            8.2660   -11.2080    -0.9620 H             1 RES     
      58 H           10.6770    -9.7210     0.1030 H             1 RES     
      59 H           10.8330    -9.7750    -0.0380 H             1 RES     
      60 H            9.9690    -8.8620    -2.6010 H             1 RES     
      61 H            8.5220    -9.0710    -1.9170 H             1 RES     
      62 H            9.3200    -8.0120     0.2860 H             1 RES     
      63 H            8.6400    -7.0970    -0.9040 H             1 RES     
      64 H           11.7140    -7.4000    -0.3120 H             1 RES     
      65 H           11.0390    -6.1790    -1.3910 H             1 RES     
      66 H            9.3650    -5.6700     0.4010 H             1 RES     
      67 H           10.4720    -6.7370     1.4250 H             1 RES     
      68 H           12.2050    -4.9380     1.2300 H             1 RES     
      69 H           11.1560    -4.0820     0.1570 H             1 RES     
      70 H           10.7890    -3.4730     2.3040 H             1 RES     
      71 H            9.5640    -3.9400     1.4680 H             1 RES     
      72 H            8.5530    -5.5740     2.8960 H             1 RES     
      73 H            9.4700    -6.5180     3.1470 H             1 RES     
      74 H            9.5130    -6.2300     5.5240 H             1 RES     
      75 H            9.6610    -4.6640     5.7150 H             1 RES     
      76 H            8.1640    -5.5380     7.2720 H             1 RES     
      77 H            8.1640    -5.5380     7.2720 H             1 RES     
      78 H            6.1960    -4.5220     7.9250 H             1 RES     
      79 H            7.0570    -3.2030     7.3730 H             1 RES     
      80 H            4.6360    -2.9180     6.9450 H             1 RES     
      81 H            5.2530    -3.1130     5.3730 H             1 RES     
      82 H            3.3840    -4.6100     5.4820 H             1 RES     
      83 H            4.7580    -5.7170     5.8090 H             1 RES     
      84 H            4.7580    -5.7170     5.8090 H             1 RES     
      85 C            4.9720    -9.0360     2.9560 C             1 RES     
      86 C            5.3370   -10.4850     3.8240 C             1 RES     
      87 C            5.7760   -12.1030     3.8990 C             1 RES     
      88 C            7.1300   -12.8980     3.7590 C             1 RES     
      89 C            8.0090   -12.3910     2.6850 C             1 RES     
      90 C            8.4840   -10.9890     3.0920 C             1 RES     
      91 C            8.8270   -10.6630     4.5410 C             1 RES     
      92 C            9.3900    -9.2590     4.6730 C             1 RES     
      93 C            8.3320    -8.1700     4.7810 C             1 RES     
      94 C            7.5250    -7.9350     6.0290 C             1 RES     
      95 C            5.9930    -8.1070     6.2100 C             1 RES     
      96 C            5.5920    -7.5680     7.6110 C             1 RES     
      97 C            4.0850    -7.6450     8.0210 C             1 RES     
      98 C            3.5230    -6.5870     9.0500 C             1 RES     
      99 C            2.7250    -5.3100     8.6410 C             1 RES     
     100 C            1.5450    -5.5480     7.6780 C             1 RES     
     101 H            4.3790    -9.5130     2.1470 H             1 RES     
     102 H            4.2170    -8.5940     3.6450 H             1 RES     
     103 H            5.9260   -10.1740     4.6490 H             1 RES     
     104 H            4.3010   -10.7250     4.1770 H             1 RES     
     105 H            5.5080   -12.4430     4.9300 H             1 RES     
     106 H            5.0910   -12.6900     3.2530 H             1 RES     
     107 H            7.7550   -12.9950     4.6830 H             1 RES     
     108 H            7.7550   -12.9950     4.6830 H             1 RES     
     109 H            8.8730   -13.0750     2.5300 H             1 RES     
     110 H            7.4320   -12.3830     1.7310 H             1 RES     
     111 H            9.3760   -10.7540     2.4930 H             1 RES     
     112 H            7.6230   -10.3890     2.8880 H             1 RES     
     113 H            9.6060   -11.3720     4.8670 H             1 RES     
     114 H            7.9550   -10.7420     5.2260 H             1 RES     
     115 H            9.9600    -9.1990     5.6070 H             1 RES     
     116 H           10.1050    -9.0410     3.8340 H             1 RES     
     117 H            7.8470    -7.8390     3.9050 H             1 RES     
     118 H            7.8840    -7.8160     3.8900 H             1 RES     
     119 H            8.1230    -8.1820     6.9310 H             1 RES     
     120 H            8.1050    -8.2750     6.9100 H             1 RES     
     121 H            5.6680    -9.1360     6.2590 H             1 RES     
     122 H            5.5010    -7.6300     5.3400 H             1 RES     
     123 H            6.1580    -8.2340     8.3040 H             1 RES     
     124 H            5.9900    -6.5750     7.7980 H             1 RES     
     125 H            4.0870    -8.5790     8.6240 H             1 RES     
     126 H            3.3840    -7.9050     7.2020 H             1 RES     
     127 H            2.7760    -7.1440     9.6470 H             1 RES     
     128 H            4.3410    -6.2780     9.7340 H             1 RES     
     129 H            3.3650    -4.4900     8.2930 H             1 RES     
     130 H            2.2930    -4.8790     9.5710 H             1 RES     
     131 H            0.8330    -6.2820     8.1040 H             1 RES     
     132 H            0.9990    -4.5920     7.5100 H             1 RES     
     133 H            1.8770    -5.9210     6.6880 H             1 RES     
     134 C           12.0630    -2.3410     5.5320 C             1 RES     
     135 C           13.6860    -2.1120     6.6900 C             1 RES     
     136 C           15.3960    -2.0850     7.6070 C             1 RES     
     137 C           16.8540    -1.7310     8.8780 C             1 RES     
     138 C           18.5390    -1.5730     9.7780 C             1 RES     
     139 C           20.0260    -1.2010    10.8290 C             1 RES     
     140 C           21.0790    -1.3240    12.2370 C             1 RES     
     141 C           21.0990    -0.3280    13.5370 C             1 RES     
     142 C           21.9880    -0.1560    14.9100 C             1 RES     
     143 C           21.2750     0.7440    16.0350 C             1 RES     
     144 C           20.9380     2.2570    15.7790 C             1 RES     
     145 C           20.3960     2.4640    14.3660 C             1 RES     
     146 C           19.9190     3.8170    13.8680 C             1 RES     
     147 C           18.4130     4.0610    13.9910 C             1 RES     
     148 C           17.8820     4.1400    15.4300 C             1 RES     
     149 C           18.5450     5.2660    16.2210 C             1 RES     
     150 H           11.8420    -3.0460     6.2790 H             1 RES     
     151 H           12.5840    -1.9010     4.6320 H             1 RES     
     152 H           14.1660    -2.7480     5.9440 H             1 RES     
     153 H           13.7320    -1.0020     6.5120 H             1 RES     
     154 H           15.4920    -3.2150     7.7250 H             1 RES     
     155 H           15.9980    -1.7740     6.7500 H             1 RES     
     156 H           16.3860    -2.1430     9.7910 H             1 RES     
     157 H           17.4470    -2.4810     8.2930 H             1 RES     
     158 H           18.7610    -2.6510     9.9130 H             1 RES     
     159 H           19.1010    -1.1690     8.8940 H             1 RES     
     160 H           20.2020    -0.1310    10.6590 H             1 RES     
     161 H           20.7920    -1.7380    10.2090 H             1 RES     
     162 H           21.1830    -2.3620    12.6220 H             1 RES     
     163 H           22.1290    -1.1360    11.8660 H             1 RES     
     164 H           21.3860     0.5810    13.0060 H             1 RES     
     165 H           20.0820    -0.4040    13.9230 H             1 RES     
     166 H           22.1320    -1.1300    15.4390 H             1 RES     
     167 H           23.0320     0.2410    14.7780 H             1 RES     
     168 H           20.3110     0.2390    16.2500 H             1 RES     
     169 H           21.8390     0.7190    17.0070 H             1 RES     
     170 H           21.8460     2.8920    15.8960 H             1 RES     
     171 H           20.2100     2.5900    16.5550 H             1 RES     
     172 H           21.3230     2.3590    13.7900 H             1 RES     
     173 H           19.6080     1.7150    14.1350 H             1 RES     
     174 H           20.0730     3.7950    12.7630 H             1 RES     
     175 H           20.5580     4.6300    14.2660 H             1 RES     
     176 H           18.1820     5.0100    13.4700 H             1 RES     
     177 H           17.8670     3.2470    13.4650 H             1 RES     
     178 H           16.7900     4.3410    15.3660 H             1 RES     
     179 H           18.0230     3.1690    15.9470 H             1 RES     
     180 H           18.4140     6.2290    15.6820 H             1 RES     
     181 H           18.0810     5.3300    17.2160 H             1 RES     
     182 H           19.6290     5.0610    16.3420 H             1 RES     
     183 C           11.6720    -4.4710     4.2690 C             1 RES     
     184 C           12.1940    -5.9890     3.5740 C             1 RES     
     185 C           12.8900    -6.9130     2.2660 C             1 RES     
     186 C           13.8220    -7.6050     1.0070 C             1 RES     
     187 C           13.9130    -8.9750     0.0500 C             1 RES     
     188 C           13.4330    -9.6270    -1.3710 C             1 RES     
     189 C           13.6590    -8.9720    -2.7890 C             1 RES     
     190 C           12.7360    -7.7760    -2.9510 C             1 RES     
     191 C           12.6320    -7.0000    -4.2820 C             1 RES     
     192 C           11.7520    -5.7200    -4.0790 C             1 RES     
     193 C           10.2380    -5.9750    -3.8430 C             1 RES     
     194 C            9.4890    -4.7740    -3.1900 C             1 RES     
     195 C            8.0360    -5.1880    -2.8550 C             1 RES     
     196 C            7.3960    -4.3280    -1.7420 C             1 RES     
     197 C            5.8700    -4.2480    -1.8090 C             1 RES     
     198 C            5.1850    -5.6150    -1.8830 C             1 RES     
     199 H           12.6410    -3.9780     4.0280 H             1 RES     
     200 H           11.6760    -4.8310     5.3020 H             1 RES     
     201 H           12.9600    -6.2420     4.3410 H             1 RES     
     202 H           11.3980    -6.6870     3.8490 H             1 RES     
     203 H           13.7560    -6.2290     2.3990 H             1 RES     
     204 H           12.8670    -7.8810     2.8150 H             1 RES     
     205 H           14.1110    -6.7960     0.3040 H             1 RES     
     206 H           14.7430    -7.8510     1.5960 H             1 RES     
     207 H           15.0030    -9.0070    -0.1860 H             1 RES     
     208 H           13.7400    -9.8250     0.7490 H             1 RES     
     209 H           12.4060    -9.9830    -1.3690 H             1 RES     
     210 H           13.9970   -10.5900    -1.4590 H             1 RES     
     211 H           14.7190    -8.7000    -2.9570 H             1 RES     
     212 H           13.3830    -9.7220    -3.5790 H             1 RES     
     213 H           11.7680    -8.1830    -2.7880 H             1 RES     
     214 H           13.0170    -7.0840    -2.1480 H             1 RES     
     215 H           13.6560    -6.6720    -4.5500 H             1 RES     
     216 H           12.2340    -7.6280    -5.1130 H             1 RES     
     217 H           12.1830    -5.1950    -3.1990 H             1 RES     
     218 H           11.8450    -5.0380    -4.9470 H             1 RES     
     219 H           10.1300    -6.8060    -3.1560 H             1 RES     
     220 H            9.7410    -6.3120    -4.7750 H             1 RES     
     221 H            9.9990    -4.5180    -2.2390 H             1 RES     
     222 H           10.0290    -4.4290    -2.2830 H             1 RES     
     223 H            7.4570    -5.1710    -3.7920 H             1 RES     
     224 H            7.9570    -6.2350    -2.5360 H             1 RES     
     225 H            7.5980    -4.8810    -0.7990 H             1 RES     
     226 H            7.8580    -4.4110    -0.7350 H             1 RES     
     227 H            5.5180    -3.6740    -0.9240 H             1 RES     
     228 H            5.5850    -3.6750    -2.7130 H             1 RES     
     229 H            5.5240    -6.2870    -1.0750 H             1 RES     
     230 H            4.0840    -5.4730    -1.8230 H             1 RES     
     231 H            5.4240    -6.1210    -2.8360 H             1 RES     
@<TRIPOS>BOND
       1        2        1 1
       2        9        1 1
       3       36        1 1
       4       85        1 1
       5        3        2 1
       6       18        2 1
       7        4        3 1
       8       16        3 1
       9        5        4 1
      10        9        4 1
      11        6        5 1
      12       19        5 1
      13        7        6 1
      14       12        6 1
      15        8        7 1
      16       10        7 1
      17        9        8 1
      18       20        8 1
      19       11       10 1
      20       15       10 1
      21       12       11 1
      22       13       11 1
      23      134       12 1
      24      183       12 1
      25       14       13 1
      26       21       13 1
      27       15       14 1
      28       22       14 1
      29       17       16 1
      30       18       17 1
      31       25       17 1
      32       23       18 1
      33       25       24 1
      34       32       24 1
      35       33       24 1
      36       26       25 1
      37       27       26 1
      38       30       26 1
      39       28       27 1
      40       29       28 1
      41       30       29 1
      42       31       30 1
      43       32       31 1
      44       34       31 1
      45       35       32 1
      46       37       36 1
      47       52       36 1
      48       53       36 1
      49       38       37 1
      50       54       37 1
      51       55       37 1
      52       39       38 1
      53       56       38 1
      54       57       38 1
      55       40       39 1
      56       58       39 1
      57       59       39 1
      58       41       40 1
      59       60       40 1
      60       61       40 1
      61       42       41 1
      62       62       41 1
      63       63       41 1
      64       43       42 1
      65       64       42 1
      66       65       42 1
      67       44       43 1
      68       66       43 1
      69       67       43 1
      70       45       44 1
      71       68       44 1
      72       69       44 1
      73       46       45 1
      74       70       45 1
      75       71       45 1
      76       47       46 1
      77       72       46 1
      78       73       46 1
      79       48       47 1
      80       74       47 1
      81       75       47 1
      82       49       48 1
      83       76       48 1
      84       77       48 1
      85       50       49 1
      86       78       49 1
      87       79       49 1
      88       51       50 1
      89       80       50 1
      90       81       50 1
      91       82       51 1
      92       83       51 1
      93       84       51 1
      94       86       85 1
      95      101       85 1
      96      102       85 1
      97       87       86 1
      98      103       86 1
      99      104       86 1
     100       88       87 1
     101      105       87 1
     102      106       87 1
     103       89       88 1
     104      107       88 1
     105      108       88 1
     106       90       89 1
     107      109       89 1
     108      110       89 1
     109       91       90 1
     110      111       90 1
     111      112       90 1
     112       92       91 1
     113      113       91 1
     114      114       91 1
     115       93       92 1
     116      115       92 1
     117      116       92 1
     118       94       93 1
     119      117       93 1
     120      118       93 1
     121       95       94 1
     122      119       94 1
     123      120       94 1
     124       96       95 1
     125      121       95 1
     126      122       95 1
     127       97       96 1
     128      123       96 1
     129      124       96 1
     130       98       97 1
     131      125       97 1
     132      126       97 1
     133       99       98 1
     134      127       98 1
     135      128       98 1
     136      100       99 1
     137      129       99 1
     138      130       99 1
     139      131      100 1
     140      132      100 1
     141      133      100 1
     142      135      134 1
     143      150      134 1
     144      151      134 1
     145      136      135 1
     146      152      135 1
     147      153      135 1
     148      137      136 1
     149      154      136 1
     150      155      136 1
     151      138      137 1
     152      156      137 1
     153      157      137 1
     154      139      138 1
     155      158      138 1
     156      159      138 1
     157      140      139 1
     158      160      139 1
     159      161      139 1
     160      141      140 1
     161      162      140 1
     162      163      140 1
     163      142      141 1
     164      164      141 1
     165      165      141 1
     166      143      142 1
     167      166      142 1
     168      167      142 1
     169      144      143 1
     170      168      143 1
     171      169      143 1
     172      145      144 1
     173      170      144 1
     174      171      144 1
     175      146      145 1
     176      172      145 1
     177      173      145 1
     178      147      146 1
     179      174      146 1
     180      175      146 1
     181      148      147 1
     182      176      147 1
     183      177      147 1
     184      149      148 1
     185      178      148 1
     186      179      148 1
     187      180      149 1
     188      181      149 1
     189      182      149 1
     190      184      183 1
     191      199      183 1
     192      200      183 1
     193      185      184 1
     194      201      184 1
     195      202      184 1
     196      186      185 1
     197      203      185 1
     198      204      185 1
     199      187      186 1
     200      205      186 1
     201      206      186 1
     202      188      187 1
     203      207      187 1
     204      208      187 1
     205      189      188 1
     206      209      188 1
     207      210      188 1
     208      190      189 1
     209      211      189 1
     210      212      189 1
     211      191      190 1
     212      213      190 1
     213      214      190 1
     214      192      191 1
     215      215      191 1
     216      216      191 1
     217      193      192 1
     218      217      192 1
     219      218      192 1
     220      194      193 1
     221      219      193 1
     222      220      193 1
     223      195      194 1
     224      221      194 1
     225      222      194 1
     226      196      195 1
     227      223      195 1
     228      224      195 1
     229      197      196 1
     230      225      196 1
     231      226      196 1
     232      198      197 1
     233      227      197 1
     234      228      197 1
     235      229      198 1
     236      230      198 1
     237      231      198 1
@<TRIPOS>SUBSTRUCTURE
       1 RES             1 RESIDUE    0 **** ROOT      0
