@<TRIPOS>MOLECULE
RES
87 93 1 0 1
SMALL
NO_CHARGES
@<TRIPOS>CRYSIN
   27.2940    14.7750    15.6180    90.0000    90.0000    90.0000  1  1
@<TRIPOS>ATOM
       1 C           -1.1020    -4.3710     1.9740 C             1 RES     
       2 C           -0.9510    -3.5430     0.7180 C             1 RES     
       3 C           -1.8280    -2.2510     0.6600 C             1 RES     
       4 C           -2.9750    -2.2800     1.6880 C             1 RES     
       5 C           -4.2710    -1.4160     1.1120 C             1 RES     
       6 C           -5.7210    -1.4650     1.6880 C             1 RES     
       7 C           -6.1260    -2.9220     1.9260 C             1 RES     
       8 C           -4.7420    -4.0260     1.9450 C             1 RES     
       9 C           -2.9750    -3.7870     2.1730 C             1 RES     
      10 C           -7.7330    -2.8630     1.3690 C             1 RES     
      11 C           -8.1430    -1.3860     1.4270 C             1 RES     
      12 C           -6.9340    -0.6480     0.9520 C             1 RES     
      13 C           -9.5780    -1.1280     0.9260 C             1 RES     
      14 C          -10.3810    -2.1750     1.3170 C             1 RES     
      15 S           -9.3640    -3.5670     2.0070 S             1 RES     
      16 S           -2.4770    -2.1720    -1.0890 S             1 RES     
      17 C           -1.9120    -3.8700    -1.4790 C             1 RES     
      18 C           -1.6060    -4.4450    -0.2170 C             1 RES     
      19 H           -0.7540    -3.7900     2.8500 H             1 RES     
      20 H           -4.0340    -0.3400     0.9610 H             1 RES     
      21 H           -5.1230    -4.9430     2.4450 H             1 RES     
      22 H           -7.0760     0.4310     1.2230 H             1 RES     
      23 H           -6.9850    -0.7100    -0.1650 H             1 RES     
      24 H          -10.0300    -0.2020     0.5210 H             1 RES     
      25 H          -11.4870    -2.1280     1.2020 H             1 RES     
      26 H           -2.4980    -4.9060     0.1740 H             1 RES     
      27 C           -2.7390    -4.8480    -3.6630 C             1 RES     
      28 C           -2.8310    -4.9170    -2.1660 C             1 RES     
      29 C           -4.3200    -5.1050    -1.7860 C             1 RES     
      30 N           -4.6630    -5.4860    -0.4430 N             1 RES     
      31 S           -6.4340    -5.4700    -0.4590 S             1 RES     
      32 N           -6.5220    -4.2510    -1.7590 N             1 RES     
      33 C           -5.1640    -3.9510    -2.1870 C             1 RES     
      34 C           -5.0670    -3.8660    -3.7120 C             1 RES     
      35 C           -3.6050    -3.7050    -4.1890 C             1 RES     
      36 H           -1.6670    -4.7820    -3.9490 H             1 RES     
      37 H           -5.6860    -3.0340    -4.0890 H             1 RES     
      38 H           -3.1880    -2.7420    -3.8350 H             1 RES     
      39 C            0.5670    -5.4600     1.7860 C             1 RES     
      40 C            2.2920    -6.4520     1.6250 C             1 RES     
      41 C            4.0960    -7.1880     1.3860 C             1 RES     
      42 C            5.8300    -7.8850     1.0960 C             1 RES     
      43 C            7.5660    -8.2290     0.7690 C             1 RES     
      44 C            9.1470    -7.9800     1.2820 C             1 RES     
      45 C            9.7040    -6.5820     0.9770 C             1 RES     
      46 C            8.9760    -5.6530     1.9030 C             1 RES     
      47 C            8.4280    -4.4790     1.1640 C             1 RES     
      48 C            7.4930    -3.6680     2.0490 C             1 RES     
      49 C            6.3350    -4.4630     2.7030 C             1 RES     
      50 C            6.6410    -5.0780     4.1120 C             1 RES     
      51 C            5.3960    -5.5860     4.8700 C             1 RES     
      52 C            4.5940    -4.5160     5.6350 C             1 RES     
      53 C            4.0530    -3.3190     4.8430 C             1 RES     
      54 C            3.0680    -3.7200     3.7480 C             1 RES     
      55 H            1.1540    -4.6160     2.1670 H             1 RES     
      56 H            0.2050    -6.1550     2.5830 H             1 RES     
      57 H            2.3880    -6.6130     2.7150 H             1 RES     
      58 H            1.8420    -7.3220     1.1340 H             1 RES     
      59 H            4.4290    -7.0040     2.3940 H             1 RES     
      60 H            3.7410    -8.2550     1.3860 H             1 RES     
      61 H            5.9590    -8.4590     2.0600 H             1 RES     
      62 H            5.5900    -8.6370     0.3170 H             1 RES     
      63 H            7.6630    -9.3440     0.8710 H             1 RES     
      64 H            7.7490    -8.0880    -0.3180 H             1 RES     
      65 H            9.8940    -8.6370     0.7460 H             1 RES     
      66 H            9.3590    -8.2160     2.3560 H             1 RES     
      67 H           10.8070    -6.4060     1.1090 H             1 RES     
      68 H            9.5070    -6.4030    -0.1030 H             1 RES     
      69 H            8.0760    -6.1860     2.2110 H             1 RES     
      70 H            9.5730    -5.4160     2.8130 H             1 RES     
      71 H            9.2470    -3.8490     0.7620 H             1 RES     
      72 H            7.8290    -4.8750     0.3090 H             1 RES     
      73 H            8.0500    -3.1130     2.8310 H             1 RES     
      74 H            7.0500    -2.9340     1.3450 H             1 RES     
      75 H            5.9210    -5.2180     2.0010 H             1 RES     
      76 H            5.5670    -3.7110     2.8010 H             1 RES     
      77 H            7.3040    -5.9570     4.0340 H             1 RES     
      78 H            7.1720    -4.3540     4.7600 H             1 RES     
      79 H            5.7470    -6.2970     5.6520 H             1 RES     
      80 H            4.7410    -6.1700     4.2160 H             1 RES     
      81 H            3.7410    -5.0300     6.1290 H             1 RES     
      82 H            5.2560    -4.1110     6.4290 H             1 RES     
      83 H            3.5250    -2.6440     5.5440 H             1 RES     
      84 H            4.8930    -2.7190     4.4440 H             1 RES     
      85 H            2.1900    -4.2200     4.2040 H             1 RES     
      86 H            2.7290    -2.8140     3.2010 H             1 RES     
      87 H            3.5190    -4.4110     3.0110 H             1 RES     
@<TRIPOS>BOND
       1        2        1 1
       2        9        1 1
       3       19        1 1
       4       39        1 1
       5        3        2 1
       6       18        2 1
       7        4        3 1
       8       16        3 1
       9        5        4 1
      10        9        4 1
      11        6        5 1
      12       20        5 1
      13        7        6 1
      14       12        6 1
      15        8        7 1
      16       10        7 1
      17        9        8 1
      18       21        8 1
      19       11       10 1
      20       15       10 1
      21       12       11 1
      22       13       11 1
      23       22       12 1
      24       23       12 1
      25       14       13 1
      26       24       13 1
      27       15       14 1
      28       25       14 1
      29       17       16 1
      30       18       17 1
      31       28       17 1
      32       26       18 1
      33       28       27 1
      34       35       27 1
      35       36       27 1
      36       29       28 1
      37       30       29 1
      38       33       29 1
      39       31       30 1
      40       32       31 1
      41       33       32 1
      42       34       33 1
      43       35       34 1
      44       37       34 1
      45       38       35 1
      46       40       39 1
      47       55       39 1
      48       56       39 1
      49       41       40 1
      50       57       40 1
      51       58       40 1
      52       42       41 1
      53       59       41 1
      54       60       41 1
      55       43       42 1
      56       61       42 1
      57       62       42 1
      58       44       43 1
      59       63       43 1
      60       64       43 1
      61       45       44 1
      62       65       44 1
      63       66       44 1
      64       46       45 1
      65       67       45 1
      66       68       45 1
      67       47       46 1
      68       69       46 1
      69       70       46 1
      70       48       47 1
      71       71       47 1
      72       72       47 1
      73       49       48 1
      74       73       48 1
      75       74       48 1
      76       50       49 1
      77       75       49 1
      78       76       49 1
      79       51       50 1
      80       77       50 1
      81       78       50 1
      82       52       51 1
      83       79       51 1
      84       80       51 1
      85       53       52 1
      86       81       52 1
      87       82       52 1
      88       54       53 1
      89       83       53 1
      90       84       53 1
      91       85       54 1
      92       86       54 1
      93       87       54 1
@<TRIPOS>SUBSTRUCTURE
       1 RES             1 RESIDUE    0 **** ROOT      0
