@<TRIPOS>MOLECULE
*****
 79 80 0 0 0
SMALL
GASTEIGER

@<TRIPOS>ATOM
      1 C          -0.5523    4.7917    0.0000 C.3     1  UNL1       -0.0653
      2 C          -0.5681    3.7847    0.0000 C.3     1  UNL1       -0.0559
      3 C          -1.4421    3.2811    0.0000 C.3     1  UNL1       -0.0533
      4 C          -2.3239    3.7801    0.0000 C.3     1  UNL1       -0.0528
      5 C          -3.2085    3.2801    0.0000 C.3     1  UNL1       -0.0490
      6 C          -4.0795    3.7777    0.0000 C.3     1  UNL1       -0.0272
      7 C          -4.9237    3.2805    0.0000 C.ar    1  UNL1       -0.0404
      8 C          -5.0281    2.2857    0.0000 C.ar    1  UNL1       -0.0212
      9 S          -6.0061    2.0793    0.0000 S.2     1  UNL1       -0.1048
     10 C          -6.5057    2.9449    0.0000 C.ar    1  UNL1       -0.0241
     11 C          -5.8353    3.6871    0.0000 C.ar    1  UNL1       -0.0516
     12 C          -4.4889   -2.8260    0.0000 C.3     2  UNL2       -0.0653
     13 C          -3.6331   -3.3256    0.0000 C.3     2  UNL2       -0.0559
     14 C          -2.7583   -2.8224    0.0000 C.3     2  UNL2       -0.0533
     15 C          -1.8705   -3.3204    0.0000 C.3     2  UNL2       -0.0528
     16 C          -0.9875   -2.8140    0.0000 C.3     2  UNL2       -0.0490
     17 C          -0.1127   -3.3064    0.0000 C.3     2  UNL2       -0.0272
     18 C           0.7289   -2.8040    0.0000 C.ar    2  UNL2       -0.0397
     19 C           0.8297   -1.8092    0.0000 C.ar    2  UNL2       -0.0205
     20 S           1.8065   -1.5966    0.0000 S.2     2  UNL2       -0.0959
     21 C           2.3095   -2.4614    0.0000 C.ar    2  UNL2        0.0264
     22 C           1.6447   -3.2060    0.0000 C.ar    2  UNL2       -0.0432
     23 C           3.3065   -2.5618    0.0000 C.ar    2  UNL2        0.0291
     24 C           3.9713   -1.8172    0.0000 C.ar    2  UNL2       -0.0321
     25 C           3.7549   -0.8614    0.0000 C.3     2  UNL2       -0.0266
     26 C           4.4937   -0.1840    0.0000 C.3     2  UNL2       -0.0490
     27 C           4.2865    0.8110    0.0000 C.3     2  UNL2       -0.0528
     28 C           5.0307    1.4998    0.0000 C.3     2  UNL2       -0.0533
     29 C           4.8165    2.4852    0.0000 C.3     2  UNL2       -0.0559
     30 C           3.8619    2.8066    0.0000 C.3     2  UNL2       -0.0653
     31 C           4.8871   -2.2194    0.0000 C.ar    2  UNL2       -0.0509
     32 C           4.7861   -3.2140    0.0000 C.ar    2  UNL2       -0.0235
     33 S           3.8095   -3.4264    0.0000 S.2     2  UNL2       -0.0959
     34 H           0.4449    4.7791    0.0000 H       1  UNL1        0.0230
     35 H          -0.0423    5.6503    0.0000 H       1  UNL1        0.0230
     36 H          -1.3957    5.3005    0.0000 H       1  UNL1        0.0230
     37 H          -0.0745    2.9155    0.0000 H       1  UNL1        0.0263
     38 H           0.4303    3.7735    0.0000 H       1  UNL1        0.0263
     39 H          -1.9261    2.4135    0.0000 H       1  UNL1        0.0265
     40 H          -0.9367    2.4183    0.0000 H       1  UNL1        0.0265
     41 H          -2.8053    4.6423    0.0000 H       1  UNL1        0.0265
     42 H          -1.8373    4.6329    0.0000 H       1  UNL1        0.0265
     43 H          -2.7261    2.4131    0.0000 H       1  UNL1        0.0268
     44 H          -3.7141    2.4171    0.0000 H       1  UNL1        0.0268
     45 H          -3.6057    4.6441    0.0000 H       1  UNL1        0.0313
     46 H          -4.5935    4.6355    0.0000 H       1  UNL1        0.0313
     47 H          -4.2859    1.6171    0.0000 H       1  UNL1        0.0696
     48 H          -7.4991    3.0503    0.0000 H       1  UNL1        0.0693
     49 H          -6.0437    4.6659    0.0000 H       1  UNL1        0.0626
     50 H          -4.9897   -3.6910    0.0000 H       2  UNL2        0.0230
     51 H          -5.4867   -2.8240    0.0000 H       2  UNL2        0.0230
     52 H          -4.4839   -1.8266    0.0000 H       2  UNL2        0.0230
     53 H          -3.1515   -4.1894    0.0000 H       2  UNL2        0.0263
     54 H          -4.1397   -4.1866    0.0000 H       2  UNL2        0.0263
     55 H          -2.2759   -1.9538    0.0000 H       2  UNL2        0.0265
     56 H          -3.2643   -1.9600    0.0000 H       2  UNL2        0.0265
     57 H          -1.3817   -4.1784    0.0000 H       2  UNL2        0.0265
     58 H          -2.3507   -4.1832    0.0000 H       2  UNL2        0.0265
     59 H          -0.4873   -1.9476    0.0000 H       2  UNL2        0.0268
     60 H          -1.4759   -1.9496    0.0000 H       2  UNL2        0.0268
     61 H           0.4057   -4.1616    0.0000 H       2  UNL2        0.0313
     62 H          -0.5819   -4.1754    0.0000 H       2  UNL2        0.0313
     63 H           0.0829   -1.1428    0.0000 H       2  UNL2        0.0696
     64 H           1.8559   -4.1842    0.0000 H       2  UNL2        0.0632
     65 H           3.0735   -0.1466    0.0000 H       2  UNL2        0.0314
     66 H           2.7811   -1.0902    0.0000 H       2  UNL2        0.0314
     67 H           5.4657    0.0110    0.0000 H       2  UNL2        0.0268
     68 H           5.1619   -0.9276    0.0000 H       2  UNL2        0.0268
     69 H           3.3187    0.6150    0.0000 H       2  UNL2        0.0265
     70 H           3.6223    1.5344    0.0000 H       2  UNL2        0.0265
     71 H           5.7095    0.7756    0.0000 H       2  UNL2        0.0265
     72 H           6.0059    1.7184    0.0000 H       2  UNL2        0.0265
     73 H           5.7945    2.6910    0.0000 H       2  UNL2        0.0263
     74 H           5.1309    3.4328    0.0000 H       2  UNL2        0.0263
     75 H           4.1773    3.7528    0.0000 H       2  UNL2        0.0230
     76 H           3.1993    3.5538    0.0000 H       2  UNL2        0.0230
     77 H           3.1207    2.1580    0.0000 H       2  UNL2        0.0230
     78 H           5.7501   -1.7162    0.0000 H       2  UNL2        0.0626
     79 H           5.5327   -3.8806    0.0000 H       2  UNL2        0.0693
@<TRIPOS>BOND
     1     1     2    1
     2     2     3    1
     3     3     4    1
     4     4     5    1
     5     5     6    1
     6     6     7    1
     7     7     8   ar
     8     8     9   ar
     9     9    10   ar
    10    10    11   ar
    11    12    13    1
    12    13    14    1
    13    14    15    1
    14    15    16    1
    15    16    17    1
    16    17    18    1
    17    18    19   ar
    18    19    20   ar
    19    20    21   ar
    20    21    22   ar
    21    21    23    1
    22    23    24   ar
    23    24    25    1
    24    25    26    1
    25    26    27    1
    26    27    28    1
    27    28    29    1
    28    29    30    1
    29    24    31   ar
    30    31    32   ar
    31    32    33   ar
    32    11     7   ar
    33    22    18   ar
    34    33    23   ar
    35     1    34    1
    36     1    35    1
    37     1    36    1
    38     2    37    1
    39     2    38    1
    40     3    39    1
    41     3    40    1
    42     4    41    1
    43     4    42    1
    44     5    43    1
    45     5    44    1
    46     6    45    1
    47     6    46    1
    48     8    47    1
    49    10    48    1
    50    11    49    1
    51    12    50    1
    52    12    51    1
    53    12    52    1
    54    13    53    1
    55    13    54    1
    56    14    55    1
    57    14    56    1
    58    15    57    1
    59    15    58    1
    60    16    59    1
    61    16    60    1
    62    17    61    1
    63    17    62    1
    64    19    63    1
    65    22    64    1
    66    25    65    1
    67    25    66    1
    68    26    67    1
    69    26    68    1
    70    27    69    1
    71    27    70    1
    72    28    71    1
    73    28    72    1
    74    29    73    1
    75    29    74    1
    76    30    75    1
    77    30    76    1
    78    30    77    1
    79    31    78    1
    80    32    79    1
