@<TRIPOS>MOLECULE
RES
186 200 1 0 1
SMALL
NO_CHARGES
@<TRIPOS>CRYSIN
   24.6989    28.3227    24.8749    90.0000    90.0000    90.0000  1  1
@<TRIPOS>ATOM
       1 C0           1.4107    -1.3127    -0.0392 C0            1 RES     
       2 C0           2.8031    -1.0624     0.1152 C0            1 RES     
       3 C1           3.7191    -2.2620     0.0351 C1            1 RES     
       4 C0           3.6120    -3.0601     1.3103 C0            1 RES     
       5 C0           2.3590    -3.6750     1.5657 C0            1 RES     
       6 C0           2.0759    -4.3426     2.7153 C0            1 RES     
       7 C0           3.1193    -4.5564     3.5832 C0            1 RES     
       8 C1           2.7809    -5.2367     4.8628 C1            1 RES     
       9 C1           4.0178    -5.3809     5.7119 C1            1 RES     
      10 C1           3.6907    -6.0356     7.0186 C1            1 RES     
      11 C1           4.9728    -6.1624     7.8154 C1            1 RES     
      12 C1           4.6740    -6.8301     9.1408 C1            1 RES     
      13 C1           5.9432    -6.9669     9.9511 C1            1 RES     
      14 C0           4.4196    -4.1153     3.2642 C0            1 RES     
      15 C0           4.6561    -3.2962     2.1847 C0            1 RES     
      16 C0           3.4687    -3.0133    -1.2456 C0            1 RES     
      17 C0           3.4419    -2.3963    -2.5162 C0            1 RES     
      18 C0           3.0123    -3.1169    -3.6088 C0            1 RES     
      19 C0           2.6539    -4.4542    -3.4338 C0            1 RES     
      20 C1           2.1786    -5.2386    -4.6024 C1            1 RES     
      21 C1           1.8854    -6.6777    -4.2296 C1            1 RES     
      22 C1           1.2940    -7.4328    -5.3805 C1            1 RES     
      23 C1           0.9841    -8.8421    -4.9217 C1            1 RES     
      24 C1           0.3852    -9.6214    -6.0740 C1            1 RES     
      25 C1           0.0576   -11.0292    -5.6307 C1            1 RES     
      26 C0           2.8942    -5.1018    -2.2237 C0            1 RES     
      27 C0           3.2754    -4.3884    -1.1422 C0            1 RES     
      28 C0           4.9978    -1.5523    -0.0366 C0            1 RES     
      29 C0           6.1106    -1.9902    -0.7748 C0            1 RES     
      30 S2           6.4013    -3.4335    -1.6744 S2            1 RES     
      31 C0           7.4126    -2.5656    -2.6779 C0            1 RES     
      32 C0           7.5523    -3.0522    -4.0146 C0            1 RES     
      33 C0           6.9860    -4.0453    -4.7877 C0            1 RES     
      34 C0           7.2434    -4.1821    -6.2142 C0            1 RES     
      35 C0           8.5211    -4.2833    -6.5684 C0            1 RES     
      36 C3           8.9342    -4.9308    -7.8801 C3            1 RES     
      37 N4           9.2769    -5.4679    -8.9683 N4            1 RES     
      38 C3           9.4973    -3.3888    -5.8218 C3            1 RES     
      39 N4          10.3071    -2.6468    -5.2025 N4            1 RES     
      40 C0           6.2364    -5.0217    -6.9022 C0            1 RES     
      41 C0           4.9174    -4.6698    -7.2394 C0            1 RES     
      42 C0           3.9336    -5.6596    -7.4864 C0            1 RES     
      43 C0           4.3196    -6.9737    -7.4943 C0            1 RES     
      44 C0           5.5515    -7.2060    -6.8835 C0            1 RES     
      45 C0           6.2426    -6.1708    -6.1804 C0            1 RES     
      46 C0           6.0273    -5.2812    -4.7504 C0            1 RES     
      47 O5           5.1137    -5.3267    -3.9660 O5            1 RES     
      48 C0           8.0503    -1.5402    -1.9078 C0            1 RES     
      49 C0           7.0910    -1.0657    -0.8861 C0            1 RES     
      50 S2           6.6175     0.3058     0.2485 S2            1 RES     
      51 C0           4.9546    -0.1879     0.1699 C0            1 RES     
      52 C0           3.4599     0.1893     0.2435 C0            1 RES     
      53 C0           2.5187     1.2503     0.1540 C0            1 RES     
      54 C0           1.0298     0.9890     0.0597 C0            1 RES     
      55 C1          -0.2636     1.9562     0.0146 C1            1 RES     
      56 C0          -0.3416     2.7565     1.2710 C0            1 RES     
      57 C0           0.7000     3.6600     1.5326 C0            1 RES     
      58 C0           0.7302     4.3782     2.7022 C0            1 RES     
      59 C0          -0.3519     4.2910     3.5662 C0            1 RES     
      60 C1          -0.2708     4.9817     4.8856 C1            1 RES     
      61 C1          -1.5261     4.7306     5.6986 C1            1 RES     
      62 C1          -1.4480     5.3955     7.0406 C1            1 RES     
      63 C1          -2.7378     5.1182     7.7897 C1            1 RES     
      64 C1          -2.6859     5.7896     9.1469 C1            1 RES     
      65 C1          -3.9653     5.5255     9.9092 C1            1 RES     
      66 C0          -1.4653     3.5277     3.2201 C0            1 RES     
      67 C0          -1.4177     2.7016     2.1423 C0            1 RES     
      68 C0          -0.4153     2.6885    -1.2960 C0            1 RES     
      69 C0          -0.3540     2.0522    -2.5496 C0            1 RES     
      70 C0          -0.1466     2.8064    -3.6964 C0            1 RES     
      71 C0          -0.1534     4.1983    -3.6155 C0            1 RES     
      72 C1           0.1679     5.0130    -4.8287 C1            1 RES     
      73 C1           0.1196     6.4999    -4.5138 C1            1 RES     
      74 C1           0.4331     7.3296    -5.7249 C1            1 RES     
      75 C1           0.3493     8.7962    -5.3422 C1            1 RES     
      76 C1           0.6548     9.6518    -6.5553 C1            1 RES     
      77 C1           0.5759    11.1186    -6.1939 C1            1 RES     
      78 C0          -0.4401     4.8148    -2.3990 C0            1 RES     
      79 C0          -0.5223     4.0757    -1.2556 C0            1 RES     
      80 C0          -1.4117     0.9575     0.0403 C0            1 RES     
      81 C0          -2.8191     0.8257     0.3674 C0            1 RES     
      82 S2          -4.8191     1.3057     0.9375 S2            1 RES     
      83 C0          -4.2299     2.2999    -0.2791 C0            1 RES     
      84 C0          -5.0528     3.8361    -0.1370 C0            1 RES     
      85 C0          -5.0842     5.3022     0.1500 C0            1 RES     
      86 C0          -6.2703     6.3061    -0.3417 C0            1 RES     
      87 C0          -7.6027     6.1126    -0.1694 C0            1 RES     
      88 C3          -8.5913     7.1646    -0.1078 C3            1 RES     
      89 N4          -9.3918     7.9919    -0.0124 N4            1 RES     
      90 C3          -8.1076     4.7530     0.0154 C3            1 RES     
      91 N4          -8.4040     3.6978     0.0814 N4            1 RES     
      92 C0          -5.8451     7.8090    -0.3839 C0            1 RES     
      93 C0          -5.0126     8.6213    -1.2256 C0            1 RES     
      94 C0          -4.5211     9.9434    -0.8686 C0            1 RES     
      95 C0          -5.0073    10.5279     0.2579 C0            1 RES     
      96 C0          -5.5689     9.5613     1.1044 C0            1 RES     
      97 C0          -5.5014     8.0752     0.8885 C0            1 RES     
      98 C0          -4.3045     6.7469     0.7262 C0            1 RES     
      99 O5          -3.0956     6.8636     0.6034 O5            1 RES     
     100 C0          -4.4364     0.5050    -0.4538 C0            1 RES     
     101 C0          -3.1976    -0.2561    -0.2385 C0            1 RES     
     102 S2          -2.0743    -1.5509    -0.0637 S2            1 RES     
     103 C0          -0.9109    -0.3285    -0.0327 C0            1 RES     
     104 C0           0.5261    -0.3084    -0.0003 C0            1 RES     
     105 H6           1.0336    -2.3032    -0.2280 H6            1 RES     
     106 H6           1.5830    -3.7153     0.8129 H6            1 RES     
     107 H6           1.0679    -4.7041     2.8856 H6            1 RES     
     108 H7           2.3318    -6.2132     4.6477 H7            1 RES     
     109 H7           2.0342    -4.6237     5.3856 H7            1 RES     
     110 H7           4.4595    -4.3914     5.9006 H7            1 RES     
     111 H7           4.7624    -5.9868     5.1780 H7            1 RES     
     112 H7           3.2511    -7.0208     6.8305 H7            1 RES     
     113 H7           2.9551    -5.4299     7.5589 H7            1 RES     
     114 H7           5.4133    -5.1695     7.9769 H7            1 RES     
     115 H7           5.7087    -6.7486     7.2489 H7            1 RES     
     116 H7           4.2342    -7.8183     8.9641 H7            1 RES     
     117 H7           3.9381    -6.2359     9.6945 H7            1 RES     
     118 H7           6.6798    -7.5722     9.4132 H7            1 RES     
     119 H7           5.7260    -7.4486    10.9067 H7            1 RES     
     120 H7           6.3829    -5.9837    10.1463 H7            1 RES     
     121 H6           5.2837    -4.3783     3.8636 H6            1 RES     
     122 H6           5.6537    -2.8916     2.0458 H6            1 RES     
     123 H6           3.8429    -1.3953    -2.6682 H6            1 RES     
     124 H6           3.0402    -2.6768    -4.6006 H6            1 RES     
     125 H7           2.9646    -5.2129    -5.3442 H7            1 RES     
     126 H7           1.2930    -4.7464    -5.0114 H7            1 RES     
     127 H7           1.1813    -6.6994    -3.3869 H7            1 RES     
     128 H7           2.8086    -7.1856    -3.9108 H7            1 RES     
     129 H7           2.0028    -7.4609    -6.2080 H7            1 RES     
     130 H7           0.3900    -6.9231    -5.7268 H7            1 RES     
     131 H7           0.2875    -8.8123    -4.0742 H7            1 RES     
     132 H7           1.9009    -9.3315    -4.5662 H7            1 RES     
     133 H7           1.0926    -9.6469    -6.9110 H7            1 RES     
     134 H7          -0.5227    -9.1182    -6.4258 H7            1 RES     
     135 H7           0.9615   -11.5463    -5.2936 H7            1 RES     
     136 H7          -0.3779   -11.5905    -6.4598 H7            1 RES     
     137 H7          -0.6587   -11.0140    -4.8031 H7            1 RES     
     138 H6           2.8598    -6.1758    -2.0860 H6            1 RES     
     139 H6           3.4230    -4.9487    -0.2260 H6            1 RES     
     140 H6           8.2998    -2.3913    -4.4126 H6            1 RES     
     141 H6           4.5717    -3.6678    -7.0044 H6            1 RES     
     142 H6           2.8725    -5.4292    -7.5460 H6            1 RES     
     143 H6           3.7238    -7.7489    -7.9849 H6            1 RES     
     144 H6           6.1380    -7.8762    -7.5612 H6            1 RES     
     145 H6           9.0125    -1.0914    -2.1711 H6            1 RES     
     146 H6           2.8528     2.2805     0.0954 H6            1 RES     
     147 H6           1.4723     3.8394     0.7896 H6            1 RES     
     148 H6           1.5849     5.0071     2.9221 H6            1 RES     
     149 H7          -0.1191     6.0533     4.7249 H7            1 RES     
     150 H7           0.5986     4.5826     5.4234 H7            1 RES     
     151 H7          -1.6733     3.6492     5.8422 H7            1 RES     
     152 H7          -2.4010     5.1181     5.1580 H7            1 RES     
     153 H7          -1.3062     6.4723     6.9026 H7            1 RES     
     154 H7          -0.5881     5.0042     7.5944 H7            1 RES     
     155 H7          -2.8802     4.0355     7.9047 H7            1 RES     
     156 H7          -3.5942     5.4918     7.2126 H7            1 RES     
     157 H7          -2.5436     6.8688     9.0186 H7            1 RES     
     158 H7          -1.8281     5.4093     9.7132 H7            1 RES     
     159 H7          -4.8282     5.9160     9.3605 H7            1 RES     
     160 H7          -3.9250     6.0105    10.8869 H7            1 RES     
     161 H7          -4.1101     4.4507    10.0577 H7            1 RES     
     162 H6          -2.3881     3.5051     3.7868 H6            1 RES     
     163 H6          -2.2619     2.0442     2.0347 H6            1 RES     
     164 H6          -0.4153     0.9699    -2.6401 H6            1 RES     
     165 H6           0.0442     2.3085    -4.6433 H6            1 RES     
     166 H7          -0.5492     4.7683    -5.6184 H7            1 RES     
     167 H7           1.1745     4.7470    -5.1760 H7            1 RES     
     168 H7           0.8391     6.7417    -3.7169 H7            1 RES     
     169 H7          -0.8823     6.7708    -4.1517 H7            1 RES     
     170 H7          -0.2860     7.0983    -6.5175 H7            1 RES     
     171 H7           1.4361     7.0830    -6.0883 H7            1 RES     
     172 H7           1.0591     9.0147    -4.5333 H7            1 RES     
     173 H7          -0.6527     9.0272    -4.9567 H7            1 RES     
     174 H7          -0.0598     9.4255    -7.3550 H7            1 RES     
     175 H7           1.6563     9.4133    -6.9313 H7            1 RES     
     176 H7          -0.4255    11.3729    -5.8325 H7            1 RES     
     177 H7           0.7968    11.7322    -7.0700 H7            1 RES     
     178 H7           1.2971    11.3606    -5.4069 H7            1 RES     
     179 H6          -0.5526     5.8851    -2.2667 H6            1 RES     
     180 H6          -0.6175     4.6361    -0.3308 H6            1 RES     
     181 H6          -6.0462     3.4813    -0.3319 H6            1 RES     
     182 H6          -4.4919     8.1615    -2.0564 H6            1 RES     
     183 H6          -3.7458    10.4760    -1.4200 H6            1 RES     
     184 H6          -5.0351    11.6240     0.3937 H6            1 RES     
     185 H6          -6.5379    10.0251     1.4589 H6            1 RES     
     186 H6          -5.1447    -0.4707    -0.2179 H6            1 RES     
@<TRIPOS>BOND
       1        2        1 1
       2      104        1 1
       3      105        1 1
       4        3        2 1
       5       52        2 1
       6        4        3 1
       7       16        3 1
       8       28        3 1
       9        5        4 1
      10       15        4 1
      11        6        5 1
      12      106        5 1
      13        7        6 1
      14      107        6 1
      15        8        7 1
      16       14        7 1
      17        9        8 1
      18      108        8 1
      19      109        8 1
      20       10        9 1
      21      110        9 1
      22      111        9 1
      23       11       10 1
      24      112       10 1
      25      113       10 1
      26       12       11 1
      27      114       11 1
      28      115       11 1
      29       13       12 1
      30      116       12 1
      31      117       12 1
      32      118       13 1
      33      119       13 1
      34      120       13 1
      35       15       14 1
      36      121       14 1
      37      122       15 1
      38       17       16 1
      39       27       16 1
      40       18       17 1
      41      123       17 1
      42       19       18 1
      43      124       18 1
      44       20       19 1
      45       26       19 1
      46       21       20 1
      47      125       20 1
      48      126       20 1
      49       22       21 1
      50      127       21 1
      51      128       21 1
      52       23       22 1
      53      129       22 1
      54      130       22 1
      55       24       23 1
      56      131       23 1
      57      132       23 1
      58       25       24 1
      59      133       24 1
      60      134       24 1
      61      135       25 1
      62      136       25 1
      63      137       25 1
      64       27       26 1
      65      138       26 1
      66      139       27 1
      67       29       28 1
      68       51       28 1
      69       30       29 1
      70       49       29 1
      71       31       30 1
      72       32       31 1
      73       48       31 1
      74       33       32 1
      75      140       32 1
      76       34       33 1
      77       46       33 1
      78       35       34 1
      79       40       34 1
      80       36       35 1
      81       38       35 1
      82       37       36 1
      83       39       38 1
      84       41       40 1
      85       45       40 1
      86       42       41 1
      87      141       41 1
      88       43       42 1
      89      142       42 1
      90       44       43 1
      91      143       43 1
      92       45       44 1
      93      144       44 1
      94       46       45 1
      95       47       46 1
      96       49       48 1
      97      145       48 1
      98       50       49 1
      99       51       50 1
     100       52       51 1
     101       53       52 1
     102       54       53 1
     103      146       53 1
     104       55       54 1
     105      104       54 1
     106       56       55 1
     107       68       55 1
     108       80       55 1
     109       57       56 1
     110       67       56 1
     111       58       57 1
     112      147       57 1
     113       59       58 1
     114      148       58 1
     115       60       59 1
     116       66       59 1
     117       61       60 1
     118      149       60 1
     119      150       60 1
     120       62       61 1
     121      151       61 1
     122      152       61 1
     123       63       62 1
     124      153       62 1
     125      154       62 1
     126       64       63 1
     127      155       63 1
     128      156       63 1
     129       65       64 1
     130      157       64 1
     131      158       64 1
     132      159       65 1
     133      160       65 1
     134      161       65 1
     135       67       66 1
     136      162       66 1
     137      163       67 1
     138       69       68 1
     139       79       68 1
     140       70       69 1
     141      164       69 1
     142       71       70 1
     143      165       70 1
     144       72       71 1
     145       78       71 1
     146       73       72 1
     147      166       72 1
     148      167       72 1
     149       74       73 1
     150      168       73 1
     151      169       73 1
     152       75       74 1
     153      170       74 1
     154      171       74 1
     155       76       75 1
     156      172       75 1
     157      173       75 1
     158       77       76 1
     159      174       76 1
     160      175       76 1
     161      176       77 1
     162      177       77 1
     163      178       77 1
     164       79       78 1
     165      179       78 1
     166      180       79 1
     167       81       80 1
     168      103       80 1
     169       82       81 1
     170      101       81 1
     171       83       82 1
     172       84       83 1
     173      100       83 1
     174       85       84 1
     175      181       84 1
     176       86       85 1
     177       98       85 1
     178       87       86 1
     179       92       86 1
     180       88       87 1
     181       90       87 1
     182       89       88 1
     183       91       90 1
     184       93       92 1
     185       97       92 1
     186       94       93 1
     187      182       93 1
     188       95       94 1
     189      183       94 1
     190       96       95 1
     191      184       95 1
     192       97       96 1
     193      185       96 1
     194       98       97 1
     195       99       98 1
     196      101      100 1
     197      186      100 1
     198      102      101 1
     199      103      102 1
     200      104      103 1
@<TRIPOS>SUBSTRUCTURE
       1 RES             1 RESIDUE    0 **** ROOT      0
