@<TRIPOS>MOLECULE
Compound
32 36 1 0 1
SMALL
NO_CHARGES
@<TRIPOS>CRYSIN
   14.3308    11.8735     5.5873    90.0000    90.0000    90.0000  1  1
@<TRIPOS>ATOM
       1 C            2.9396    -2.3111     0.0185 C             1 Compound
       2 C            3.5818    -1.0870    -0.0848 C             1 Compound
       3 C            2.8365     0.0905    -0.1884 C             1 Compound
       4 C            3.5053     1.3132    -0.2915 C             1 Compound
       5 C            2.7865     2.4938    -0.3954 C             1 Compound
       6 C            1.3947     2.4742    -0.3982 C             1 Compound
       7 C            0.6726     1.2564    -0.2957 C             1 Compound
       8 C           -0.7513     1.2110    -0.2965 C             1 Compound
       9 C           -1.5495     2.3802    -0.3996 C             1 Compound
      10 C           -2.9397     2.3111    -0.3982 C             1 Compound
      11 C           -3.5818     1.0870    -0.2949 C             1 Compound
      12 C           -2.8365    -0.0905    -0.1912 C             1 Compound
      13 C           -3.5053    -1.3132    -0.0882 C             1 Compound
      14 C           -2.7865    -2.4938     0.0157 C             1 Compound
      15 C           -1.3947    -2.4742     0.0185 C             1 Compound
      16 C           -0.6726    -1.2564    -0.0839 C             1 Compound
      17 C            0.7512    -1.2110    -0.0832 C             1 Compound
      18 C            1.5495    -2.3802     0.0200 C             1 Compound
      19 C            1.4129     0.0451    -0.1891 C             1 Compound
      20 C           -1.4129    -0.0451    -0.1905 C             1 Compound
      21 H            3.5250    -3.2185     0.0984 H             1 Compound
      22 H            4.6654    -1.0608    -0.0835 H             1 Compound
      23 H            4.5884     1.3561    -0.2916 H             1 Compound
      24 H            3.3129     3.4367    -0.4749 H             1 Compound
      25 H            0.9207     3.4360    -0.4824 H             1 Compound
      26 H           -1.1377     3.3703    -0.4835 H             1 Compound
      27 H           -3.5250     3.2185    -0.4781 H             1 Compound
      28 H           -4.6654     1.0608    -0.2961 H             1 Compound
      29 H           -4.5884    -1.3561    -0.0880 H             1 Compound
      30 H           -3.3129    -3.4367     0.0952 H             1 Compound
      31 H           -0.9207    -3.4360     0.1028 H             1 Compound
      32 H            1.1377    -3.3703     0.1038 H             1 Compound
@<TRIPOS>BOND
       1        2        1 1
       2       18        1 1
       3       21        1 1
       4        3        2 1
       5       22        2 1
       6        4        3 1
       7       19        3 1
       8        5        4 1
       9       23        4 1
      10        6        5 1
      11       24        5 1
      12        7        6 1
      13       25        6 1
      14        8        7 1
      15       19        7 1
      16        9        8 1
      17       20        8 1
      18       10        9 1
      19       26        9 1
      20       11       10 1
      21       27       10 1
      22       12       11 1
      23       28       11 1
      24       13       12 1
      25       20       12 1
      26       14       13 1
      27       29       13 1
      28       15       14 1
      29       30       14 1
      30       16       15 1
      31       31       15 1
      32       17       16 1
      33       20       16 1
      34       18       17 1
      35       19       17 1
      36       32       18 1
@<TRIPOS>SUBSTRUCTURE
       1 Compound        1 RESIDUE    0 **** ROOT      0
