@<TRIPOS>MOLECULE
RES
439 446 1 0 1
SMALL
NO_CHARGES
@<TRIPOS>CRYSIN
   24.7794    29.6205    28.1258    90.0000    90.0000    90.0000 1 1
@<TRIPOS>ATOM
       1 C            7.1556     0.3091    15.7580 C             1 RES     
       2 C            6.2258    -0.3066    14.7503 C             1 RES     
       3 C            6.4323    -1.7651    14.5186 C             1 RES     
       4 C            7.9883    -1.6507    14.6230 C             1 RES     
       5 C            9.2040    -2.4512    14.8958 C             1 RES     
       6 C           10.4798    -1.7280    15.0159 C             1 RES     
       7 C           10.4509    -0.4621    14.4146 C             1 RES     
       8 C            9.3016     0.2737    14.2471 C             1 RES     
       9 C            8.1584    -0.2851    14.7331 C             1 RES     
      10 C           11.7812    -0.0787    14.0430 C             1 RES     
      11 C           12.6386    -0.9298    14.5452 C             1 RES     
      12 C           11.9908    -1.8178    15.6151 C             1 RES     
      13 C           13.8835    -0.9284    13.7831 C             1 RES     
      14 C           13.7869    -0.0502    12.7033 C             1 RES     
      15 S           12.3006     0.9636    12.6892 S             1 RES     
      16 S            5.5869    -1.8867    12.8047 S             1 RES     
      17 C            5.0169    -0.0938    12.6401 C             1 RES     
      18 C            5.5774     0.4980    13.8618 C             1 RES     
      19 H            9.1151    -3.5023    15.1280 H             1 RES     
      20 H            9.3373     1.2883    13.9591 H             1 RES     
      21 H           14.6737    -1.6544    13.8870 H             1 RES     
      22 H            5.6797     1.5417    13.9626 H             1 RES     
      23 C           -0.3592     1.6239    12.2848 C             1 RES     
      24 C           -0.3858     2.5147    10.9959 C             1 RES     
      25 C            0.8022     2.9427    10.6165 C             1 RES     
      26 S            0.8616     4.0626     9.2089 S             1 RES     
      27 C           -0.9436     3.9748     9.2176 C             1 RES     
      28 C           -1.4609     3.1086    10.1761 C             1 RES     
      29 C            1.8337     2.2882    11.4016 C             1 RES     
      30 C            1.2569     1.5359    12.3335 C             1 RES     
      31 C            2.2612     0.4557    12.7331 C             1 RES     
      32 C            3.6113     0.4698    12.0121 C             1 RES     
      33 S            3.6158     2.0775    11.0729 S             1 RES     
      34 H           -2.5236     2.9632    10.3150 H             1 RES     
      35 H            1.9400    -0.4878    13.0994 H             1 RES     
      36 C           -1.5690     2.3167    13.1700 C             1 RES     
      37 C           -2.2204     2.1718    14.6607 C             1 RES     
      38 C           -3.0356     1.0811    15.6329 C             1 RES     
      39 C           -2.9578    -0.3313    16.5446 C             1 RES     
      40 C           -2.5031    -0.7728    18.1018 C             1 RES     
      41 C           -1.0380    -1.2434    18.6622 C             1 RES     
      42 C           -0.8047    -1.6017    20.2351 C             1 RES     
      43 C            0.7335    -1.7036    20.7856 C             1 RES     
      44 C            1.0615    -2.3372    22.2603 C             1 RES     
      45 C            2.1760    -1.7603    23.3941 C             1 RES     
      46 C            2.7796    -2.3689    24.9178 C             1 RES     
      47 C            4.0059    -3.2749    25.6754 C             1 RES     
      48 C            3.7555    -3.5613    27.2157 C             1 RES     
      49 C            2.9748    -2.5432    28.1077 C             1 RES     
      50 C            3.3699    -2.6709    29.6033 C             1 RES     
      51 C            2.6975    -1.7017    30.5627 C             1 RES     
      52 C            4.7166    -4.6136    25.1428 C             1 RES     
      53 C            6.3149    -4.6912    25.0433 C             1 RES     
      54 C            6.8341    -5.6646    23.9056 C             1 RES     
      55 C            8.3629    -5.6646    23.5798 C             1 RES     
      56 C            8.9613    -4.3868    22.9607 C             1 RES     
      57 C            8.5240    -4.1013    21.5199 C             1 RES     
      58 H           -2.4688     2.1560    12.5315 H             1 RES     
      59 H           -1.3870     3.4176    13.0874 H             1 RES     
      60 H           -1.5605     2.7663    15.2133 H             1 RES     
      61 H           -3.0374     2.9261    14.5415 H             1 RES     
      62 H           -3.4981     1.7709    16.3743 H             1 RES     
      63 H           -3.8583     0.8256    14.9243 H             1 RES     
      64 H           -2.7464    -1.1778    15.8688 H             1 RES     
      65 H           -4.0577    -0.4378    16.7006 H             1 RES     
      66 H           -2.8866     0.0166    18.7849 H             1 RES     
      67 H           -3.1323    -1.6634    18.3209 H             1 RES     
      68 H           -0.3424    -0.4569    18.5077 H             1 RES     
      69 H           -0.6912    -2.1050    18.0541 H             1 RES     
      70 H           -1.3459    -2.5491    20.4440 H             1 RES     
      71 H           -1.2805    -0.8033    20.8366 H             1 RES     
      72 H            1.2172    -0.7134    20.6924 H             1 RES     
      73 H            1.2626    -2.3575    20.0525 H             1 RES     
      74 H            0.0971    -2.4662    22.7473 H             1 RES     
      75 H            1.3060    -3.3650    21.9674 H             1 RES     
      76 H            2.9950    -1.3505    22.8106 H             1 RES     
      77 H            1.6580    -0.8469    23.7111 H             1 RES     
      78 H            3.1671    -1.4263    25.2618 H             1 RES     
      79 H            1.9329    -2.5460    25.5777 H             1 RES     
      80 H            4.8591    -2.5829    25.5690 H             1 RES     
      81 H            4.7623    -3.7359    27.6285 H             1 RES     
      82 H            3.2267    -4.5332    27.3516 H             1 RES     
      83 H            1.8851    -2.7157    27.9793 H             1 RES     
      84 H            3.1919    -1.5090    27.8140 H             1 RES     
      85 H            3.2597    -3.7128    29.9739 H             1 RES     
      86 H            4.3995    -2.3566    29.6989 H             1 RES     
      87 H            3.1869    -1.8040    31.5616 H             1 RES     
      88 H            1.6213    -1.9242    30.6694 H             1 RES     
      89 H            2.8563    -0.6549    30.2241 H             1 RES     
      90 H            4.2894    -5.5637    25.5287 H             1 RES     
      91 H            4.4333    -4.6176    24.1668 H             1 RES     
      92 H            6.7617    -5.0173    26.0032 H             1 RES     
      93 H            6.7163    -3.6822    24.8190 H             1 RES     
      94 H            6.5568    -6.6980    24.1926 H             1 RES     
      95 H            6.3373    -5.4731    22.9415 H             1 RES     
      96 H            8.9276    -5.8906    24.5051 H             1 RES     
      97 H            8.5727    -6.4772    22.8461 H             1 RES     
      98 H            8.7586    -3.5231    23.6194 H             1 RES     
      99 H           10.0641    -4.5116    22.9073 H             1 RES     
     100 H            8.8554    -4.8822    20.8100 H             1 RES     
     101 H            7.4339    -3.9727    21.4068 H             1 RES     
     102 H            9.0138    -3.1631    21.2245 H             1 RES     
     103 C           -0.7561     0.1720    12.2190 C             1 RES     
     104 C           -1.0481    -0.4130    13.6597 C             1 RES     
     105 C           -0.2015    -0.2807    15.0547 C             1 RES     
     106 C            0.2589     0.7542    16.2595 C             1 RES     
     107 C           -0.5701     1.6850    17.3364 C             1 RES     
     108 C            0.1497     2.1407    18.6543 C             1 RES     
     109 C           -0.5238     3.3609    19.4122 C             1 RES     
     110 C            0.4296     3.9739    20.5032 C             1 RES     
     111 C            0.4951     5.5254    20.7370 C             1 RES     
     112 C            0.6323     6.2410    19.3817 C             1 RES     
     113 C            1.0738     7.7218    19.2205 C             1 RES     
     114 C            2.3262     7.8920    18.2965 C             1 RES     
     115 C            2.4109     9.2984    17.6443 C             1 RES     
     116 C            1.4967    10.1250    16.7629 C             1 RES     
     117 C            2.3910    11.3431    16.3389 C             1 RES     
     118 C            1.7738    12.2622    15.3149 C             1 RES     
     119 C            3.7316     7.6173    19.0212 C             1 RES     
     120 C            4.9011     8.0183    18.0525 C             1 RES     
     121 C            6.3497     8.4694    18.2905 C             1 RES     
     122 C            6.8929     9.0762    16.8953 C             1 RES     
     123 C            7.0632     8.2592    15.5747 C             1 RES     
     124 C            8.4385     7.6560    15.2259 C             1 RES     
     125 H           -0.0021    -0.4231    11.6558 H             1 RES     
     126 H           -1.6788     0.0762    11.5996 H             1 RES     
     127 H           -1.1147    -1.4978    13.4406 H             1 RES     
     128 H           -2.0992    -0.1762    13.8266 H             1 RES     
     129 H           -0.6636    -1.0876    15.6374 H             1 RES     
     130 H            0.7592    -0.7230    14.7693 H             1 RES     
     131 H            1.0821     1.3644    15.8908 H             1 RES     
     132 H            0.8220     0.0552    16.8993 H             1 RES     
     133 H           -0.8406     2.6291    16.9327 H             1 RES     
     134 H           -1.5150     1.3141    17.6783 H             1 RES     
     135 H            1.1358     2.4681    18.3128 H             1 RES     
     136 H            0.2926     1.3207    19.3831 H             1 RES     
     137 H           -1.5214     3.1310    19.8456 H             1 RES     
     138 H           -0.7171     4.1138    18.6428 H             1 RES     
     139 H            1.4194     3.8302    20.1202 H             1 RES     
     140 H            0.3887     3.3913    21.4485 H             1 RES     
     141 H           -0.3739     5.9136    21.3032 H             1 RES     
     142 H            1.4183     5.7185    21.3336 H             1 RES     
     143 H            1.3483     5.6485    18.8057 H             1 RES     
     144 H           -0.3808     6.1666    18.9372 H             1 RES     
     145 H            0.2538     8.1792    18.6207 H             1 RES     
     146 H            1.1110     8.2951    20.1669 H             1 RES     
     147 H            2.2151     7.2017    17.4367 H             1 RES     
     148 H            3.1062     9.0782    16.8067 H             1 RES     
     149 H            2.7693     9.9775    18.4540 H             1 RES     
     150 H            0.5980    10.4581    17.3137 H             1 RES     
     151 H            1.2006     9.5318    15.8665 H             1 RES     
     152 H            2.6596    11.9361    17.2430 H             1 RES     
     153 H            3.3537    10.9943    15.8875 H             1 RES     
     154 H            2.4970    13.0840    15.1081 H             1 RES     
     155 H            0.8334    12.6894    15.7079 H             1 RES     
     156 H            1.5985    11.7035    14.3726 H             1 RES     
     157 H            3.7947     8.2495    19.9307 H             1 RES     
     158 H            3.8089     6.5644    19.3480 H             1 RES     
     159 H            4.6802     9.0442    17.8538 H             1 RES     
     160 H            4.8161     7.3696    17.1587 H             1 RES     
     161 H            6.3027     9.2468    19.0819 H             1 RES     
     162 H            7.0091     7.7694    18.7872 H             1 RES     
     163 H            6.1476     9.8460    16.6320 H             1 RES     
     164 H            7.7983     9.6748    16.9525 H             1 RES     
     165 H            6.2484     7.5376    15.4378 H             1 RES     
     166 H            6.9622     9.0121    14.7689 H             1 RES     
     167 H            9.2651     8.3887    15.3283 H             1 RES     
     168 H            8.6829     6.7785    15.7935 H             1 RES     
     169 H            8.4511     7.3290    14.1686 H             1 RES     
     170 C            6.0721     0.9213    16.8083 C             1 RES     
     171 C            6.2702     1.1948    18.4231 C             1 RES     
     172 C            6.8431     2.3085    19.4630 C             1 RES     
     173 C            8.3075     2.2963    19.9969 C             1 RES     
     174 C            9.6615     2.9037    19.4521 C             1 RES     
     175 C            9.7746     2.7425    17.9174 C             1 RES     
     176 C           10.7825     3.3633    16.9348 C             1 RES     
     177 C           10.5457     2.9438    15.4856 C             1 RES     
     178 C            9.6349     3.7691    14.4843 C             1 RES     
     179 C            8.1035     3.8898    14.7051 C             1 RES     
     180 C            7.3470     4.5323    13.4806 C             1 RES     
     181 C            5.8457     5.0076    13.6457 C             1 RES     
     182 C            5.3389     5.6974    12.3449 C             1 RES     
     183 C            5.8018     7.1317    12.1594 C             1 RES     
     184 C            5.0179     7.7549    10.9900 C             1 RES     
     185 C            5.3597     9.2204    10.8158 C             1 RES     
     186 C            4.8479     3.8938    14.0059 C             1 RES     
     187 C            3.4181     4.4114    14.2642 C             1 RES     
     188 C            2.4723     3.3308    14.7114 C             1 RES     
     189 C            1.0284     3.7207    14.3724 C             1 RES     
     190 C            0.4694     4.9815    14.9950 C             1 RES     
     191 C            0.7744     5.0487    16.4495 C             1 RES     
     192 H            5.5049     1.7298    16.3453 H             1 RES     
     193 H            5.3348     0.0784    16.8865 H             1 RES     
     194 H            5.2512     1.1029    18.6479 H             1 RES     
     195 H            6.5565     0.2857    18.9362 H             1 RES     
     196 H            6.4323     3.3130    19.4690 H             1 RES     
     197 H            6.3226     1.9642    20.3814 H             1 RES     
     198 H            8.3558     1.2512    19.9965 H             1 RES     
     199 H            8.2674     2.6766    21.0450 H             1 RES     
     200 H            9.7902     3.9020    19.8972 H             1 RES     
     201 H           10.5502     2.4766    19.9572 H             1 RES     
     202 H            8.7963     2.9865    17.4915 H             1 RES     
     203 H           10.1072     1.6962    17.8890 H             1 RES     
     204 H           11.7375     2.9093    17.2232 H             1 RES     
     205 H           10.8713     4.4362    16.9041 H             1 RES     
     206 H           11.5404     2.9559    14.9954 H             1 RES     
     207 H           10.2841     1.9045    15.6076 H             1 RES     
     208 H           10.0532     4.7957    14.4070 H             1 RES     
     209 H            9.7710     3.3133    13.4831 H             1 RES     
     210 H            7.6491     2.9045    14.9315 H             1 RES     
     211 H            8.0450     4.5517    15.5558 H             1 RES     
     212 H            7.9197     5.4284    13.1892 H             1 RES     
     213 H            7.3993     3.8165    12.6325 H             1 RES     
     214 H            5.7776     5.7230    14.4764 H             1 RES     
     215 H            4.2620     5.8517    12.3787 H             1 RES     
     216 H            5.5300     5.0571    11.4568 H             1 RES     
     217 H            6.8939     7.1723    11.9876 H             1 RES     
     218 H            5.5467     7.7002    13.0820 H             1 RES     
     219 H            5.2349     7.1972    10.0541 H             1 RES     
     220 H            3.9204     7.6907    11.1853 H             1 RES     
     221 H            4.7695     9.6312     9.9701 H             1 RES     
     222 H            6.4415     9.3288    10.6019 H             1 RES     
     223 H            5.0989     9.7804    11.7399 H             1 RES     
     224 H            4.7908     3.1946    13.1611 H             1 RES     
     225 H            5.1899     3.3761    14.9054 H             1 RES     
     226 H            2.9757     4.7461    13.3177 H             1 RES     
     227 H            3.4019     5.2426    14.9963 H             1 RES     
     228 H            2.7136     2.4109    14.1718 H             1 RES     
     229 H            2.5859     3.0727    15.7786 H             1 RES     
     230 H            0.8968     3.8656    13.2879 H             1 RES     
     231 H            0.4267     2.8739    14.6702 H             1 RES     
     232 H            0.8899     5.8895    14.5219 H             1 RES     
     233 H           -0.6329     4.9741    14.8418 H             1 RES     
     234 H            0.5513     4.1106    16.9326 H             1 RES     
     235 H            1.8521     5.2051    16.6152 H             1 RES     
     236 H            0.1727     5.8702    16.8630 H             1 RES     
     237 C            8.1596    -0.1638    16.9072 C             1 RES     
     238 C            8.0907    -1.3059    17.9847 C             1 RES     
     239 C            9.1928    -1.2599    19.1524 C             1 RES     
     240 C            9.7219    -0.5166    20.4716 C             1 RES     
     241 C            9.2278    -0.3879    21.9497 C             1 RES     
     242 C            7.7652    -0.0816    22.3178 C             1 RES     
     243 C            6.9555    -1.3215    21.9544 C             1 RES     
     244 C            5.5132    -1.3751    22.4064 C             1 RES     
     245 C            4.9963    -2.8590    22.5614 C             1 RES     
     246 C            4.0167    -3.7219    21.6577 C             1 RES     
     247 C            3.3446    -5.1387    22.2124 C             1 RES     
     248 C            1.9671    -5.6096    23.0540 C             1 RES     
     249 C            2.0707    -7.0421    23.6461 C             1 RES     
     250 C            2.7744    -8.0739    22.7780 C             1 RES     
     251 C            2.4524    -9.4843    23.2742 C             1 RES     
     252 C            3.1889   -10.5202    22.4401 C             1 RES     
     253 C            1.3021    -4.8171    24.2469 C             1 RES     
     254 C           -0.2639    -4.6033    24.3853 C             1 RES     
     255 C           -0.5886    -3.3166    25.2582 C             1 RES     
     256 C           -2.0082    -2.6897    25.2182 C             1 RES     
     257 C           -2.3617    -1.8673    23.9453 C             1 RES     
     258 C           -1.5971    -0.5310    23.8010 C             1 RES     
     259 H            8.4375     0.7566    17.3839 H             1 RES     
     260 H            8.4375     0.7566    17.3839 H             1 RES     
     261 H            7.0901    -1.5435    18.3650 H             1 RES     
     262 H            8.3360    -2.1895    17.3669 H             1 RES     
     263 H            9.3637    -2.3207    19.3576 H             1 RES     
     264 H            9.9785    -0.8661    18.5586 H             1 RES     
     265 H           10.1219     0.4600    20.2067 H             1 RES     
     266 H           10.6742    -1.0189    20.6721 H             1 RES     
     267 H            9.4702    -1.3300    22.4458 H             1 RES     
     268 H            9.8801     0.3711    22.4527 H             1 RES     
     269 H            7.3639     0.8504    21.9166 H             1 RES     
     270 H            7.7354     0.0586    23.4294 H             1 RES     
     271 H            7.4516    -2.0767    22.5762 H             1 RES     
     272 H            7.0238    -1.5470    20.8787 H             1 RES     
     273 H            4.8451    -0.6749    21.8671 H             1 RES     
     274 H            5.5886    -0.9728    23.4525 H             1 RES     
     275 H            5.8448    -3.4575    22.8577 H             1 RES     
     276 H            4.4590    -2.7275    23.4190 H             1 RES     
     277 H            3.2698    -3.0606    21.2119 H             1 RES     
     278 H            4.6774    -3.9980    20.8125 H             1 RES     
     279 H            3.1497    -5.6521    21.2524 H             1 RES     
     280 H            4.1874    -5.7535    22.5598 H             1 RES     
     281 H            1.1914    -5.6030    22.2607 H             1 RES     
     282 H            1.0314    -7.3728    23.8705 H             1 RES     
     283 H            2.6212    -7.0318    24.6192 H             1 RES     
     284 H            3.8741    -7.9037    22.8254 H             1 RES     
     285 H            2.4240    -7.9773    21.7326 H             1 RES     
     286 H            2.7276    -9.6109    24.3457 H             1 RES     
     287 H            1.3573    -9.6470    23.1684 H             1 RES     
     288 H            2.8616   -11.5365    22.7402 H             1 RES     
     289 H            4.2837   -10.4264    22.6024 H             1 RES     
     290 H            2.9628   -10.3715    21.3627 H             1 RES     
     291 H            1.7936    -4.9543    25.2358 H             1 RES     
     292 H            1.5317    -3.9136    23.9197 H             1 RES     
     293 H           -0.7685    -5.4912    24.8237 H             1 RES     
     294 H           -0.6868    -4.4472    23.3745 H             1 RES     
     295 H           -0.3365    -3.5597    26.3137 H             1 RES     
     296 H            0.0273    -2.4659    24.9601 H             1 RES     
     297 H           -2.7608    -3.4828    25.3896 H             1 RES     
     298 H           -2.0901    -1.9638    26.0622 H             1 RES     
     299 H           -2.2389    -2.4884    23.0354 H             1 RES     
     300 H           -3.4316    -1.5762    24.0168 H             1 RES     
     301 H           -1.7586     0.1271    24.6788 H             1 RES     
     302 H           -0.5141    -0.6536    23.6907 H             1 RES     
     303 H           -1.9526     0.0152    22.9008 H             1 RES     
     304 C           12.8601    -3.1094    16.0507 C             1 RES     
     305 C           12.6374    -3.8796    17.4635 C             1 RES     
     306 C           13.5095    -3.4991    18.7705 C             1 RES     
     307 C           12.8738    -3.9567    20.1989 C             1 RES     
     308 C           13.2119    -3.5099    21.7395 C             1 RES     
     309 C           12.2719    -2.4811    22.5461 C             1 RES     
     310 C           12.1752    -2.6384    24.1507 C             1 RES     
     311 C           11.1157    -1.6779    24.8438 C             1 RES     
     312 C           10.6837    -1.8064    26.3604 C             1 RES     
     313 C            9.9452    -3.1236    26.7179 C             1 RES     
     314 C            9.2094    -3.1983    28.1029 C             1 RES     
     315 C            7.6674    -2.8599    28.1511 C             1 RES     
     316 C            7.0315    -3.4877    29.4546 C             1 RES     
     317 C            7.1914    -5.0336    29.6858 C             1 RES     
     318 C            6.1554    -5.5900    30.7052 C             1 RES     
     319 C            6.2976    -7.0980    30.9711 C             1 RES     
     320 C            7.3440    -1.3160    27.8581 C             1 RES     
     321 C            5.8528    -0.7755    27.7868 C             1 RES     
     322 C            5.6821     0.6311    27.1001 C             1 RES     
     323 C            4.2858     1.3788    27.1434 C             1 RES     
     324 C            3.0973     1.0637    26.1910 C             1 RES     
     325 C            3.3955     1.2934    24.6974 C             1 RES     
     326 H           13.9326    -2.8106    16.0607 H             1 RES     
     327 H           12.7443    -3.8253    15.2132 H             1 RES     
     328 H           11.5527    -3.8622    17.6856 H             1 RES     
     329 H           12.8903    -4.9449    17.2961 H             1 RES     
     330 H           14.5377    -3.9151    18.6750 H             1 RES     
     331 H           13.7835    -2.4755    18.6705 H             1 RES     
     332 H           11.7717    -3.9251    20.1234 H             1 RES     
     333 H           13.1442    -5.0352    20.1850 H             1 RES     
     334 H           12.9933    -4.4408    22.3043 H             1 RES     
     335 H           14.2931    -3.3210    21.9218 H             1 RES     
     336 H           11.2491    -2.6681    22.1883 H             1 RES     
     337 H           12.5258    -1.4305    22.2967 H             1 RES     
     338 H           13.1669    -2.4663    24.6231 H             1 RES     
     339 H           11.8652    -3.6791    24.3741 H             1 RES     
     340 H           10.1621    -1.7897    24.3219 H             1 RES     
     341 H           11.4720    -0.6340    24.7019 H             1 RES     
     342 H           11.5419    -1.6574    27.0533 H             1 RES     
     343 H            9.9769    -0.9727    26.5552 H             1 RES     
     344 H            9.2103    -3.4090    25.9404 H             1 RES     
     345 H           10.7469    -3.8935    26.7188 H             1 RES     
     346 H            9.2535    -4.2826    28.3264 H             1 RES     
     347 H            9.7765    -2.6975    28.9173 H             1 RES     
     348 H            7.1959    -3.4172    27.3302 H             1 RES     
     349 H            5.9826    -3.3949    29.3105 H             1 RES     
     350 H            7.3199    -2.9418    30.3768 H             1 RES     
     351 H            8.2156    -5.2622    30.0501 H             1 RES     
     352 H            7.0198    -5.5755    28.7298 H             1 RES     
     353 H            6.2450    -5.0605    31.6768 H             1 RES     
     354 H            5.1303    -5.4235    30.3065 H             1 RES     
     355 H            5.4988    -7.4324    31.6728 H             1 RES     
     356 H            7.2774    -7.3299    31.4388 H             1 RES     
     357 H            6.1900    -7.6867    30.0351 H             1 RES     
     358 H            7.8873    -0.6822    28.5889 H             1 RES     
     359 H            7.7609    -1.1308    26.8507 H             1 RES     
     360 H            5.4481    -0.7082    28.8139 H             1 RES     
     361 H            5.2637    -1.4579    27.2062 H             1 RES     
     362 H            6.3602     1.2989    27.6679 H             1 RES     
     363 H            6.0436     0.5978    26.0496 H             1 RES     
     364 H            3.8947     1.3343    28.1806 H             1 RES     
     365 H            4.5008     2.4447    26.9170 H             1 RES     
     366 H            2.6660     0.0867    26.4094 H             1 RES     
     367 H            2.2590     1.7536    26.4326 H             1 RES     
     368 H            3.6884     2.3483    24.5177 H             1 RES     
     369 H            4.1952     0.6258    24.3287 H             1 RES     
     370 H            2.4835     1.1244    24.0850 H             1 RES     
     371 C           11.8314    -0.9476    16.9499 C             1 RES     
     372 C           12.9173    -0.1949    17.8149 C             1 RES     
     373 C           12.9166    -0.4194    19.3961 C             1 RES     
     374 C           14.3165    -0.3586    20.1180 C             1 RES     
     375 C           14.6990     1.0461    20.6501 C             1 RES     
     376 C           14.5970     2.0159    19.5007 C             1 RES     
     377 C           14.6179     3.5230    19.7136 C             1 RES     
     378 C           14.2861     4.0968    18.3138 C             1 RES     
     379 C           13.5194     5.4136    18.2325 C             1 RES     
     380 C           12.1403     5.4045    18.9732 C             1 RES     
     381 C           11.2358     6.5033    18.3663 C             1 RES     
     382 C            9.7308     6.7730    18.8448 C             1 RES     
     383 C            9.5891     8.3175    18.5515 C             1 RES     
     384 C            9.0696     9.2201    19.7112 C             1 RES     
     385 C            8.7346    10.6657    19.2368 C             1 RES     
     386 C            8.4635    11.6321    20.3715 C             1 RES     
     387 C            8.6105     5.7256    18.1624 C             1 RES     
     388 C            6.9988     5.5653    18.0896 C             1 RES     
     389 C            6.2159     4.3704    17.3936 C             1 RES     
     390 C            4.6586     4.1788    17.6476 C             1 RES     
     391 C            3.8106     3.8125    18.9315 C             1 RES     
     392 C            3.5056     2.3669    19.4259 C             1 RES     
     393 H           11.3994    -1.6997    17.5957 H             1 RES     
     394 H           11.0572    -0.1642    16.7807 H             1 RES     
     395 H           13.8938    -0.0251    17.3243 H             1 RES     
     396 H           12.5512     0.8450    17.7651 H             1 RES     
     397 H           12.2393     0.2669    19.9255 H             1 RES     
     398 H           12.4436    -1.3823    19.6173 H             1 RES     
     399 H           15.1036    -0.7714    19.4503 H             1 RES     
     400 H           14.3061    -1.0069    21.0166 H             1 RES     
     401 H           13.9781     1.3308    21.4497 H             1 RES     
     402 H           15.7216     1.0370    21.0876 H             1 RES     
     403 H           13.5593     1.8988    19.1925 H             1 RES     
     404 H           15.3052     1.7078    18.7012 H             1 RES     
     405 H           15.5865     3.9106    20.0916 H             1 RES     
     406 H           13.8163     3.7570    20.4476 H             1 RES     
     407 H           13.6192     3.4086    17.7777 H             1 RES     
     408 H           15.2005     4.0905    17.6834 H             1 RES     
     409 H           14.1419     6.2723    18.5480 H             1 RES     
     410 H           13.3273     5.5196    17.1376 H             1 RES     
     411 H           11.6889     4.4257    18.8989 H             1 RES     
     412 H           12.2930     5.5672    20.0595 H             1 RES     
     413 H           11.8913     7.3638    18.6064 H             1 RES     
     414 H           11.2212     6.4709    17.2533 H             1 RES     
     415 H            9.7278     6.6786    19.9499 H             1 RES     
     416 H            9.2230     8.4094    17.5497 H             1 RES     
     417 H           10.5601     8.8418    18.4035 H             1 RES     
     418 H            9.8838     9.2733    20.4682 H             1 RES     
     419 H            8.2045     8.7873    20.2410 H             1 RES     
     420 H            9.5337    11.0799    18.5853 H             1 RES     
     421 H            7.7999    10.6957    18.6748 H             1 RES     
     422 H            8.0857    12.5882    19.9410 H             1 RES     
     423 H            9.3989    11.8321    20.9268 H             1 RES     
     424 H            7.6833    11.2218    21.0462 H             1 RES     
     425 H            9.0056     5.4405    17.1999 H             1 RES     
     426 H            8.7053     4.8875    18.7228 H             1 RES     
     427 H            6.6844     6.3282    17.3984 H             1 RES     
     428 H            6.5944     5.6400    19.1208 H             1 RES     
     429 H            6.2137     4.5854    16.3314 H             1 RES     
     430 H            6.7577     3.4373    17.3977 H             1 RES     
     431 H            4.2416     5.1504    17.3260 H             1 RES     
     432 H            4.3177     3.4379    16.9147 H             1 RES     
     433 H            4.0631     4.4412    19.8002 H             1 RES     
     434 H            2.8107     4.0880    18.5669 H             1 RES     
     435 H            3.2351     1.6874    18.5812 H             1 RES     
     436 H            4.2539     1.9720    20.1189 H             1 RES     
     437 H            2.6602     2.2698    20.1211 H             1 RES     
     438 H           14.4735    -0.0545    11.8643 H             1 RES     
     439 H           -1.5671     4.5696     8.5510 H             1 RES     
@<TRIPOS>BOND
       1        1        2 1
       2        1        9 1
       3        1      170 1
       4        1      237 1
       5        2        3 1
       6        2       18 1
       7        3        4 1
       8        3       16 1
       9        4        5 1
      10        4        9 1
      11        5        6 1
      12        5       19 1
      13        6        7 1
      14        6       12 1
      15        7        8 1
      16        7       10 1
      17        8        9 1
      18        8       20 1
      19       10       11 1
      20       10       15 1
      21       11       12 1
      22       11       13 1
      23       12      304 1
      24       12      371 1
      25       13       14 1
      26       13       21 1
      27       14       15 1
      28       14      438 1
      29       16       17 1
      30       17       18 1
      31       17       32 1
      32       18       22 1
      33       23       24 1
      34       23       30 1
      35       23       36 1
      36       23      103 1
      37       24       25 1
      38       24       28 1
      39       25       26 1
      40       25       29 1
      41       26       27 1
      42       27       28 1
      43       27      439 1
      44       28       34 1
      45       29       30 1
      46       29       33 1
      47       30       31 1
      48       31       32 1
      49       31       35 1
      50       32       33 1
      51       36       37 1
      52       36       58 1
      53       36       59 1
      54       37       38 1
      55       37       60 1
      56       37       61 1
      57       38       39 1
      58       38       62 1
      59       38       63 1
      60       39       40 1
      61       39       64 1
      62       39       65 1
      63       40       41 1
      64       40       66 1
      65       40       67 1
      66       41       42 1
      67       41       68 1
      68       41       69 1
      69       42       43 1
      70       42       70 1
      71       42       71 1
      72       43       44 1
      73       43       72 1
      74       43       73 1
      75       44       45 1
      76       44       74 1
      77       44       75 1
      78       45       46 1
      79       45       76 1
      80       45       77 1
      81       46       47 1
      82       46       78 1
      83       46       79 1
      84       47       48 1
      85       47       52 1
      86       47       80 1
      87       48       49 1
      88       48       81 1
      89       48       82 1
      90       49       50 1
      91       49       83 1
      92       49       84 1
      93       50       51 1
      94       50       85 1
      95       50       86 1
      96       51       87 1
      97       51       88 1
      98       51       89 1
      99       52       53 1
     100       52       90 1
     101       52       91 1
     102       53       54 1
     103       53       92 1
     104       53       93 1
     105       54       55 1
     106       54       94 1
     107       54       95 1
     108       55       56 1
     109       55       96 1
     110       55       97 1
     111       56       57 1
     112       56       98 1
     113       56       99 1
     114       57      100 1
     115       57      101 1
     116       57      102 1
     117      103      104 1
     118      103      125 1
     119      103      126 1
     120      104      105 1
     121      104      127 1
     122      104      128 1
     123      105      106 1
     124      105      129 1
     125      105      130 1
     126      106      107 1
     127      106      131 1
     128      106      132 1
     129      107      108 1
     130      107      133 1
     131      107      134 1
     132      108      109 1
     133      108      135 1
     134      108      136 1
     135      109      110 1
     136      109      137 1
     137      109      138 1
     138      110      111 1
     139      110      139 1
     140      110      140 1
     141      111      112 1
     142      111      141 1
     143      111      142 1
     144      112      113 1
     145      112      143 1
     146      112      144 1
     147      113      114 1
     148      113      145 1
     149      113      146 1
     150      114      115 1
     151      114      119 1
     152      114      147 1
     153      115      116 1
     154      115      148 1
     155      115      149 1
     156      116      117 1
     157      116      150 1
     158      116      151 1
     159      117      118 1
     160      117      152 1
     161      117      153 1
     162      118      154 1
     163      118      155 1
     164      118      156 1
     165      119      120 1
     166      119      157 1
     167      119      158 1
     168      120      121 1
     169      120      159 1
     170      120      160 1
     171      121      122 1
     172      121      161 1
     173      121      162 1
     174      122      123 1
     175      122      163 1
     176      122      164 1
     177      123      124 1
     178      123      165 1
     179      123      166 1
     180      124      167 1
     181      124      168 1
     182      124      169 1
     183      170      171 1
     184      170      192 1
     185      170      193 1
     186      171      172 1
     187      171      194 1
     188      171      195 1
     189      172      173 1
     190      172      196 1
     191      172      197 1
     192      173      174 1
     193      173      198 1
     194      173      199 1
     195      174      175 1
     196      174      200 1
     197      174      201 1
     198      175      176 1
     199      175      202 1
     200      175      203 1
     201      176      177 1
     202      176      204 1
     203      176      205 1
     204      177      178 1
     205      177      206 1
     206      177      207 1
     207      178      179 1
     208      178      208 1
     209      178      209 1
     210      179      180 1
     211      179      210 1
     212      179      211 1
     213      180      181 1
     214      180      212 1
     215      180      213 1
     216      181      182 1
     217      181      186 1
     218      181      214 1
     219      182      183 1
     220      182      215 1
     221      182      216 1
     222      183      184 1
     223      183      217 1
     224      183      218 1
     225      184      185 1
     226      184      219 1
     227      184      220 1
     228      185      221 1
     229      185      222 1
     230      185      223 1
     231      186      187 1
     232      186      224 1
     233      186      225 1
     234      187      188 1
     235      187      226 1
     236      187      227 1
     237      188      189 1
     238      188      228 1
     239      188      229 1
     240      189      190 1
     241      189      230 1
     242      189      231 1
     243      190      191 1
     244      190      232 1
     245      190      233 1
     246      191      234 1
     247      191      235 1
     248      191      236 1
     249      237      238 1
     250      237      259 1
     251      237      260 1
     252      238      239 1
     253      238      261 1
     254      238      262 1
     255      239      240 1
     256      239      263 1
     257      239      264 1
     258      240      241 1
     259      240      265 1
     260      240      266 1
     261      241      242 1
     262      241      267 1
     263      241      268 1
     264      242      243 1
     265      242      269 1
     266      242      270 1
     267      243      244 1
     268      243      271 1
     269      243      272 1
     270      244      245 1
     271      244      273 1
     272      244      274 1
     273      245      246 1
     274      245      275 1
     275      245      276 1
     276      246      247 1
     277      246      277 1
     278      246      278 1
     279      247      248 1
     280      247      279 1
     281      247      280 1
     282      248      249 1
     283      248      253 1
     284      248      281 1
     285      249      250 1
     286      249      282 1
     287      249      283 1
     288      250      251 1
     289      250      284 1
     290      250      285 1
     291      251      252 1
     292      251      286 1
     293      251      287 1
     294      252      288 1
     295      252      289 1
     296      252      290 1
     297      253      254 1
     298      253      291 1
     299      253      292 1
     300      254      255 1
     301      254      293 1
     302      254      294 1
     303      255      256 1
     304      255      295 1
     305      255      296 1
     306      256      257 1
     307      256      297 1
     308      256      298 1
     309      257      258 1
     310      257      299 1
     311      257      300 1
     312      258      301 1
     313      258      302 1
     314      258      303 1
     315      304      305 1
     316      304      326 1
     317      304      327 1
     318      305      306 1
     319      305      328 1
     320      305      329 1
     321      306      307 1
     322      306      330 1
     323      306      331 1
     324      307      308 1
     325      307      332 1
     326      307      333 1
     327      308      309 1
     328      308      334 1
     329      308      335 1
     330      309      310 1
     331      309      336 1
     332      309      337 1
     333      310      311 1
     334      310      338 1
     335      310      339 1
     336      311      312 1
     337      311      340 1
     338      311      341 1
     339      312      313 1
     340      312      342 1
     341      312      343 1
     342      313      314 1
     343      313      344 1
     344      313      345 1
     345      314      315 1
     346      314      346 1
     347      314      347 1
     348      315      316 1
     349      315      320 1
     350      315      348 1
     351      316      317 1
     352      316      349 1
     353      316      350 1
     354      317      318 1
     355      317      351 1
     356      317      352 1
     357      318      319 1
     358      318      353 1
     359      318      354 1
     360      319      355 1
     361      319      356 1
     362      319      357 1
     363      320      321 1
     364      320      358 1
     365      320      359 1
     366      321      322 1
     367      321      360 1
     368      321      361 1
     369      322      323 1
     370      322      362 1
     371      322      363 1
     372      323      324 1
     373      323      364 1
     374      323      365 1
     375      324      325 1
     376      324      366 1
     377      324      367 1
     378      325      368 1
     379      325      369 1
     380      325      370 1
     381      371      372 1
     382      371      393 1
     383      371      394 1
     384      372      373 1
     385      372      395 1
     386      372      396 1
     387      373      374 1
     388      373      397 1
     389      373      398 1
     390      374      375 1
     391      374      399 1
     392      374      400 1
     393      375      376 1
     394      375      401 1
     395      375      402 1
     396      376      377 1
     397      376      403 1
     398      376      404 1
     399      377      378 1
     400      377      405 1
     401      377      406 1
     402      378      379 1
     403      378      407 1
     404      378      408 1
     405      379      380 1
     406      379      409 1
     407      379      410 1
     408      380      381 1
     409      380      411 1
     410      380      412 1
     411      381      382 1
     412      381      413 1
     413      381      414 1
     414      382      383 1
     415      382      387 1
     416      382      415 1
     417      383      384 1
     418      383      416 1
     419      383      417 1
     420      384      385 1
     421      384      418 1
     422      384      419 1
     423      385      386 1
     424      385      420 1
     425      385      421 1
     426      386      422 1
     427      386      423 1
     428      386      424 1
     429      387      388 1
     430      387      425 1
     431      387      426 1
     432      388      389 1
     433      388      427 1
     434      388      428 1
     435      389      390 1
     436      389      429 1
     437      389      430 1
     438      390      391 1
     439      390      431 1
     440      390      432 1
     441      391      392 1
     442      391      433 1
     443      391      434 1
     444      392      435 1
     445      392      436 1
     446      392      437 1
@<TRIPOS>SUBSTRUCTURE
       1 RES             1 RESIDUE    0 **** ROOT      0
