@<TRIPOS>MOLECULE
Compound
103 107 1 0 1
SMALL
NO_CHARGES
@<TRIPOS>CRYSIN
   24.4976    25.0385     9.1170    90.0000    90.0000    90.0000  1  1
@<TRIPOS>ATOM
       1 C0          -1.5578     5.7881    -0.1552 C0            1 Compound
       2 O1          -1.3286     6.9878    -0.2067 O1            1 Compound
       3 C0          -0.6392     4.7417    -0.5306 C0            1 Compound
       4 C0           0.6442     4.7340    -1.0198 C0            1 Compound
       5 S2           1.0588     3.1127    -1.0894 S2            1 Compound
       6 C0          -0.3933     2.4179    -0.5071 C0            1 Compound
       7 C0          -1.2365     3.5206    -0.2587 C0            1 Compound
       8 C0          -2.5629     3.8713     0.2785 C0            1 Compound
       9 O1          -3.4031     3.0769     0.6805 O1            1 Compound
      10 N3          -2.6967     5.2340     0.3303 N3            1 Compound
      11 C4          -3.8110     5.9883     0.8913 C4            1 Compound
      12 C4          -4.4259     6.9886    -0.1114 C4            1 Compound
      13 C4          -5.5040     7.8316     0.5872 C4            1 Compound
      14 C4          -6.1658     8.8567    -0.3477 C4            1 Compound
      15 C4          -7.2394     9.6427     0.4224 C4            1 Compound
      16 C4          -8.0011    10.6314    -0.4696 C4            1 Compound
      17 C4          -9.0932    11.3448     0.3426 C4            1 Compound
      18 C4          -9.9113    12.2977    -0.5232 C4            1 Compound
      19 C0          -0.4845     0.9411    -0.2804 C0            1 Compound
      20 S2           0.9473     0.0749    -0.2953 S2            1 Compound
      21 C0           0.3318    -1.3995     0.1210 C0            1 Compound
      22 C0           1.0756    -2.5695     0.3375 C0            1 Compound
      23 O5           2.4315    -2.6401     0.2712 O5            1 Compound
      24 C4           3.3127    -1.7566     0.8701 C4            1 Compound
      25 C4           4.2975    -1.1397    -0.1455 C4            1 Compound
      26 C4           5.0503    -2.2306    -0.9573 C4            1 Compound
      27 C4           5.9387    -3.1588    -0.1236 C4            1 Compound
      28 C4           5.2336    -0.1686     0.6201 C4            1 Compound
      29 C4           6.2413     0.5752    -0.2681 C4            1 Compound
      30 C4           7.0722     1.5525     0.5746 C4            1 Compound
      31 C4           8.1023     2.2864    -0.2775 C4            1 Compound
      32 C0           0.3660    -3.7072     0.6849 C0            1 Compound
      33 C0           0.9502    -4.9568     0.9520 C0            1 Compound
      34 C0           0.0261    -5.9243     1.3087 C0            1 Compound
      35 S2          -1.4960    -5.2160     1.3045 S2            1 Compound
      36 C0          -1.0217    -3.6767     0.8155 C0            1 Compound
      37 C0          -1.8066    -2.5179     0.5656 C0            1 Compound
      38 O5          -3.1734    -2.6204     0.6592 O5            1 Compound
      39 C4          -4.0932    -1.9917    -0.1739 C4            1 Compound
      40 C4          -5.1892    -2.9411    -0.7823 C4            1 Compound
      41 C4          -4.5840    -4.1278    -1.5920 C4            1 Compound
      42 C4          -4.2189    -5.3478    -0.7443 C4            1 Compound
      43 C4          -6.2498    -3.3961     0.2620 C4            1 Compound
      44 C4          -7.4185    -4.1960    -0.3655 C4            1 Compound
      45 C4          -8.3770    -4.7288     0.7083 C4            1 Compound
      46 C4          -9.4675    -5.6060     0.0920 C4            1 Compound
      47 C0          -1.0725    -1.3154     0.2325 C0            1 Compound
      48 C0          -1.5366     0.0340     0.0216 C0            1 Compound
      49 H6           1.2617     5.5883    -1.2642 H6            1 Compound
      50 H7          -3.4273     6.5582     1.7670 H7            1 Compound
      51 H7          -4.6011     5.2971     1.2545 H7            1 Compound
      52 H8          -4.8607     6.4350    -0.9708 H8            1 Compound
      53 H8          -3.6507     7.6842    -0.4952 H8            1 Compound
      54 H8          -5.0389     8.3777     1.4387 H8            1 Compound
      55 H8          -6.2863     7.1501     0.9862 H8            1 Compound
      56 H8          -6.6381     8.3209    -1.1993 H8            1 Compound
      57 H8          -5.4017     9.5612    -0.7466 H8            1 Compound
      58 H8          -6.7602    10.1972     1.2599 H8            1 Compound
      59 H8          -7.9706     8.9200     0.8465 H8            1 Compound
      60 H8          -8.4760    10.0742    -1.3067 H8            1 Compound
      61 H8          -7.2964    11.3817    -0.8916 H8            1 Compound
      62 H8          -8.6274    11.9200     1.1726 H8            1 Compound
      63 H8          -9.7838    10.5898     0.7785 H8            1 Compound
      64 H8         -10.6930    12.7832     0.0995 H8            1 Compound
      65 H8          -9.2602    13.0854    -0.9568 H8            1 Compound
      66 H8         -10.4107    11.7394    -1.3436 H8            1 Compound
      67 H7           3.8809    -2.3179     1.6397 H7            1 Compound
      68 H7           2.7711    -0.9596     1.4235 H7            1 Compound
      69 H8           3.7113    -0.5434    -0.8778 H8            1 Compound
      70 H8           4.3067    -2.8537    -1.4999 H8            1 Compound
      71 H8           5.6786    -1.7460    -1.7331 H8            1 Compound
      72 H8           5.3405    -3.7261     0.6178 H8            1 Compound
      73 H8           6.4300    -3.8934    -0.7956 H8            1 Compound
      74 H8           6.7326    -2.5869     0.3983 H8            1 Compound
      75 H8           4.5972     0.5920     1.1258 H8            1 Compound
      76 H8           5.7872    -0.7217     1.4095 H8            1 Compound
      77 H8           5.6968     1.1369    -1.0582 H8            1 Compound
      78 H8           6.9309    -0.1513    -0.7467 H8            1 Compound
      79 H8           6.4005     2.3002     1.0505 H8            1 Compound
      80 H8           7.6067     0.9948     1.3749 H8            1 Compound
      81 H8           7.5979     2.8709    -1.0755 H8            1 Compound
      82 H8           8.8046     1.5611    -0.7410 H8            1 Compound
      83 H8           8.6835     2.9833     0.3629 H8            1 Compound
      84 H9           2.0130    -5.1540     0.8900 H9            1 Compound
      85 H6           0.2510    -6.9531     1.5541 H6            1 Compound
      86 H7          -4.6010    -1.1799     0.3885 H7            1 Compound
      87 H7          -3.5574    -1.5238    -1.0289 H7            1 Compound
      88 H8          -5.7195    -2.2970    -1.5187 H8            1 Compound
      89 H8          -5.3107    -4.4894    -2.3500 H8            1 Compound
      90 H8          -3.6915    -3.7627    -2.1437 H8            1 Compound
      91 H8          -5.1070    -5.8678    -0.3357 H8            1 Compound
      92 H8          -3.6464    -6.0890    -1.3392 H8            1 Compound
      93 H8          -3.6548    -5.0175     0.1174 H8            1 Compound
      94 H8          -5.7521    -4.0105     1.0424 H8            1 Compound
      95 H8          -6.6755    -2.5009     0.7651 H8            1 Compound
      96 H8          -7.9707    -3.5545    -1.0860 H8            1 Compound
      97 H8          -7.0393    -5.0726    -0.9236 H8            1 Compound
      98 H8          -7.8091    -5.3506     1.4350 H8            1 Compound
      99 H8          -8.8453    -3.8807     1.2518 H8            1 Compound
     100 H8         -10.0722    -5.0260    -0.6362 H8            1 Compound
     101 H8          -9.0130    -6.4784    -0.4271 H8            1 Compound
     102 H8         -10.1374    -5.9887     0.8910 H8            1 Compound
     103 H9          -2.5690     0.3421     0.1008 H9            1 Compound
@<TRIPOS>BOND
       1        2        1 1
       2        3        1 1
       3       10        1 1
       4        4        3 1
       5        7        3 1
       6        5        4 1
       7       49        4 1
       8        6        5 1
       9        7        6 1
      10       19        6 1
      11        8        7 1
      12        9        8 1
      13       10        8 1
      14       11       10 1
      15       12       11 1
      16       50       11 1
      17       51       11 1
      18       13       12 1
      19       52       12 1
      20       53       12 1
      21       14       13 1
      22       54       13 1
      23       55       13 1
      24       15       14 1
      25       56       14 1
      26       57       14 1
      27       16       15 1
      28       58       15 1
      29       59       15 1
      30       17       16 1
      31       60       16 1
      32       61       16 1
      33       18       17 1
      34       62       17 1
      35       63       17 1
      36       64       18 1
      37       65       18 1
      38       66       18 1
      39       20       19 1
      40       48       19 1
      41       21       20 1
      42       22       21 1
      43       47       21 1
      44       23       22 1
      45       32       22 1
      46       24       23 1
      47       25       24 1
      48       67       24 1
      49       68       24 1
      50       26       25 1
      51       28       25 1
      52       69       25 1
      53       27       26 1
      54       70       26 1
      55       71       26 1
      56       72       27 1
      57       73       27 1
      58       74       27 1
      59       29       28 1
      60       75       28 1
      61       76       28 1
      62       30       29 1
      63       77       29 1
      64       78       29 1
      65       31       30 1
      66       79       30 1
      67       80       30 1
      68       81       31 1
      69       82       31 1
      70       83       31 1
      71       33       32 1
      72       36       32 1
      73       34       33 1
      74       84       33 1
      75       35       34 1
      76       85       34 1
      77       36       35 1
      78       37       36 1
      79       38       37 1
      80       47       37 1
      81       39       38 1
      82       40       39 1
      83       86       39 1
      84       87       39 1
      85       41       40 1
      86       43       40 1
      87       88       40 1
      88       42       41 1
      89       89       41 1
      90       90       41 1
      91       91       42 1
      92       92       42 1
      93       93       42 1
      94       44       43 1
      95       94       43 1
      96       95       43 1
      97       45       44 1
      98       96       44 1
      99       97       44 1
     100       46       45 1
     101       98       45 1
     102       99       45 1
     103      100       46 1
     104      101       46 1
     105      102       46 1
     106       48       47 1
     107      103       48 1
@<TRIPOS>SUBSTRUCTURE
       1 Compound        1 RESIDUE    0 **** ROOT      0
