@<TRIPOS>MOLECULE
Compound
103 107 1 0 1
SMALL
NO_CHARGES
@<TRIPOS>CRYSIN
   23.8851    13.0428    18.2321    90.0000    90.0000    90.0000  1  1
@<TRIPOS>ATOM
       1 C0          13.8294     9.6323     8.7891 C0            1 Compound
       2 O1          13.7171     9.3713     7.6003 O1            1 Compound
       3 C0          15.1271     9.9273     9.4667 C0            1 Compound
       4 C0          16.0759    11.0024     9.1642 C0            1 Compound
       5 S2          17.0926    11.2091    10.6375 S2            1 Compound
       6 C0          15.5887    10.8676    11.5949 C0            1 Compound
       7 C0          14.6685    10.2761    10.8201 C0            1 Compound
       8 C0          13.2609     9.8863    10.9125 C0            1 Compound
       9 O1          12.5671     9.8903    11.9160 O1            1 Compound
      10 N3          12.8081     9.5492     9.6804 N3            1 Compound
      11 C4          11.4499     9.1334     9.3623 C4            1 Compound
      12 C4          10.4589    10.2800     9.5936 C4            1 Compound
      13 C4           9.0118     9.9218     9.2219 C4            1 Compound
      14 C4           8.4326     8.7874    10.0947 C4            1 Compound
      15 C4           6.9447     8.4856     9.8313 C4            1 Compound
      16 C4           5.9232     9.3653    10.5877 C4            1 Compound
      17 C4           5.9682    10.8655    10.2818 C4            1 Compound
      18 C4           4.8264    11.6039    10.9736 C4            1 Compound
      19 H5          11.3800     8.8283     8.2952 H5            1 Compound
      20 H5          11.1986     8.2509     9.9867 H5            1 Compound
      21 H6          10.4841    10.6092    10.6539 H6            1 Compound
      22 H6          10.7742    11.1365     8.9583 H6            1 Compound
      23 H6           8.9547     9.6289     8.1503 H6            1 Compound
      24 H6           8.4363    10.8507     9.3287 H6            1 Compound
      25 H6           8.5824     8.9788    11.1772 H6            1 Compound
      26 H6           8.9963     7.8689     9.8268 H6            1 Compound
      27 H6           6.7467     8.4744     8.7374 H6            1 Compound
      28 H6           6.7545     7.4556    10.2073 H6            1 Compound
      29 H6           4.9144     8.9815    10.3178 H6            1 Compound
      30 H6           6.0607     9.2228    11.6825 H6            1 Compound
      31 H6           5.8896    11.0297     9.1852 H6            1 Compound
      32 H6           6.9073    11.2995    10.6752 H6            1 Compound
      33 H6           4.8926    11.4707    12.0747 H6            1 Compound
      34 H6           4.8942    12.6883    10.7428 H6            1 Compound
      35 H6           3.8463    11.2243    10.6156 H6            1 Compound
      36 S2          16.8297    11.5897    13.9606 S2            1 Compound
      37 C0          16.0135    11.9882    15.3694 C0            1 Compound
      38 C0          16.5165    12.2653    16.6566 C0            1 Compound
      39 O7          17.8312    12.2523    17.0078 O7            1 Compound
      40 C4          18.9381    12.5187    16.2265 C4            1 Compound
      41 C4          20.2309    12.3056    17.0476 C4            1 Compound
      42 C4          20.2172    13.0972    18.3807 C4            1 Compound
      43 C4          20.0524    14.6061    18.2023 C4            1 Compound
      44 C4          20.4798    10.8031    17.3661 C4            1 Compound
      45 C4          20.6165     9.8653    16.1456 C4            1 Compound
      46 C4          21.7606    10.2667    15.2008 C4            1 Compound
      47 C4          21.9015     9.2740    14.0502 C4            1 Compound
      48 C0          15.5710    12.5464    17.6512 C0            1 Compound
      49 C0          15.9026    12.8574    19.0328 C0            1 Compound
      50 C0          14.7790    13.1097    19.7832 C0            1 Compound
      51 S2          13.2421    12.9812    18.8711 S2            1 Compound
      52 C0          14.1971    12.5685    17.3965 C0            1 Compound
      53 C0          13.6972    12.2769    16.0945 C0            1 Compound
      54 O7          12.3788    12.2560    15.7500 O7            1 Compound
      55 C4          11.2797    12.3668    16.5776 C4            1 Compound
      56 C4           9.9701    12.1883    15.7796 C4            1 Compound
      57 C4           9.7131    13.4486    14.9134 C4            1 Compound
      58 C4           8.3420    13.4561    14.2316 C4            1 Compound
      59 C4           9.9856    10.8968    14.9147 C4            1 Compound
      60 C4          10.2985     9.6146    15.7108 C4            1 Compound
      61 C4          10.3410     8.3569    14.8285 C4            1 Compound
      62 C4           8.9846     7.9899    14.2289 C4            1 Compound
      63 C0          14.6428    11.9706    15.0953 C0            1 Compound
      64 C0          14.3367    11.5986    13.7692 C0            1 Compound
      65 C0          15.4736    11.3332    12.9988 C0            1 Compound
      66 H5          18.8772    13.5690    15.8739 H5            1 Compound
      67 H5          18.9872    11.8818    15.3325 H5            1 Compound
      68 H6          21.0859    12.6767    16.4441 H6            1 Compound
      69 H6          21.1817    12.9244    18.9069 H6            1 Compound
      70 H6          19.4014    12.7247    19.0378 H6            1 Compound
      71 H6          20.0976    15.0974    19.1970 H6            1 Compound
      72 H6          20.8667    15.0093    17.5654 H6            1 Compound
      73 H6          19.0688    14.8490    17.7511 H6            1 Compound
      74 H6          19.6521    10.4195    18.0023 H6            1 Compound
      75 H6          21.4213    10.7203    17.9529 H6            1 Compound
      76 H6          19.6622     9.8169    15.5816 H6            1 Compound
      77 H6          20.8165     8.8415    16.5315 H6            1 Compound
      78 H6          22.7175    10.3003    15.7655 H6            1 Compound
      79 H6          21.5639    11.2676    14.7637 H6            1 Compound
      80 H6          20.9639     9.2371    13.4554 H6            1 Compound
      81 H6          22.7314     9.5928    13.3843 H6            1 Compound
      82 H6          22.1287     8.2592    14.4400 H6            1 Compound
      83 H8          16.9084    12.8969    19.4291 H8            1 Compound
      84 H5          11.3331    11.5755    17.3544 H5            1 Compound
      85 H5          11.2644    13.3533    17.0871 H5            1 Compound
      86 H6           9.1468    12.1214    16.5258 H6            1 Compound
      87 H6          10.5094    13.5589    14.1455 H6            1 Compound
      88 H6           9.7440    14.3434    15.5737 H6            1 Compound
      89 H6           8.2060    14.4158    13.6898 H6            1 Compound
      90 H6           7.5354    13.3644    14.9907 H6            1 Compound
      91 H6           8.2475    12.6375    13.4909 H6            1 Compound
      92 H6          10.7459    11.0051    14.1102 H6            1 Compound
      93 H6           8.9913    10.7831    14.4443 H6            1 Compound
      94 H6           9.5572     9.4791    16.5278 H6            1 Compound
      95 H6          11.3083     9.7055    16.1617 H6            1 Compound
      96 H6          10.6743     7.5045    15.4593 H6            1 Compound
      97 H6          11.0861     8.4946    14.0146 H6            1 Compound
      98 H6           9.0861     7.0547    13.6393 H6            1 Compound
      99 H6           8.2425     7.8231    15.0379 H6            1 Compound
     100 H6           8.6145     8.7819    13.5500 H6            1 Compound
     101 H8          13.3256    11.5328    13.4073 H8            1 Compound
     102 H9          15.9222    11.7579     8.4050 H9            1 Compound
     103 H9          14.8194    13.3696    20.8323 H9            1 Compound
@<TRIPOS>BOND
       1        2        1 1
       2        3        1 1
       3       10        1 1
       4        4        3 1
       5        7        3 1
       6        5        4 1
       7      102        4 1
       8        6        5 1
       9        7        6 1
      10       65        6 1
      11        8        7 1
      12        9        8 1
      13       10        8 1
      14       11       10 1
      15       12       11 1
      16       19       11 1
      17       20       11 1
      18       13       12 1
      19       21       12 1
      20       22       12 1
      21       14       13 1
      22       23       13 1
      23       24       13 1
      24       15       14 1
      25       25       14 1
      26       26       14 1
      27       16       15 1
      28       27       15 1
      29       28       15 1
      30       17       16 1
      31       29       16 1
      32       30       16 1
      33       18       17 1
      34       31       17 1
      35       32       17 1
      36       33       18 1
      37       34       18 1
      38       35       18 1
      39       37       36 1
      40       65       36 1
      41       38       37 1
      42       63       37 1
      43       39       38 1
      44       48       38 1
      45       40       39 1
      46       41       40 1
      47       66       40 1
      48       67       40 1
      49       42       41 1
      50       44       41 1
      51       68       41 1
      52       43       42 1
      53       69       42 1
      54       70       42 1
      55       71       43 1
      56       72       43 1
      57       73       43 1
      58       45       44 1
      59       74       44 1
      60       75       44 1
      61       46       45 1
      62       76       45 1
      63       77       45 1
      64       47       46 1
      65       78       46 1
      66       79       46 1
      67       80       47 1
      68       81       47 1
      69       82       47 1
      70       49       48 1
      71       52       48 1
      72       50       49 1
      73       83       49 1
      74       51       50 1
      75      103       50 1
      76       52       51 1
      77       53       52 1
      78       54       53 1
      79       63       53 1
      80       55       54 1
      81       56       55 1
      82       84       55 1
      83       85       55 1
      84       57       56 1
      85       59       56 1
      86       86       56 1
      87       58       57 1
      88       87       57 1
      89       88       57 1
      90       89       58 1
      91       90       58 1
      92       91       58 1
      93       60       59 1
      94       92       59 1
      95       93       59 1
      96       61       60 1
      97       94       60 1
      98       95       60 1
      99       62       61 1
     100       96       61 1
     101       97       61 1
     102       98       62 1
     103       99       62 1
     104      100       62 1
     105       64       63 1
     106       65       64 1
     107      101       64 1
@<TRIPOS>SUBSTRUCTURE
       1 Compound        1 RESIDUE    0 **** ROOT      0
