@<TRIPOS>MOLECULE
Polymer
507 531 1 0 1
SMALL
NO_CHARGES
@<TRIPOS>CRYSIN
   29.1504    21.5617    55.5962    90.0000    90.0000    90.0000  1  1
@<TRIPOS>ATOM
       1 C0          13.7967     9.4257     8.5469 C0            1 Polymer 
       2 O1          13.6039     9.2796     7.3492 O1            1 Polymer 
       3 C0          15.1529     9.5393     9.1695 C0            1 Polymer 
       4 C0          16.1180    10.6152     8.8965 C0            1 Polymer 
       5 S2          17.2375    10.6530    10.3032 S2            1 Polymer 
       6 C0          15.7509    10.3965    11.2924 C0            1 Polymer 
       7 C0          14.7773     9.8433    10.5570 C0            1 Polymer 
       8 C0          13.3483     9.5710    10.7034 C0            1 Polymer 
       9 O1          12.7053     9.5544    11.7419 O1            1 Polymer 
      10 N3          12.8139     9.3661     9.4800 N3            1 Polymer 
      11 C4          11.4107     9.0876     9.2035 C4            1 Polymer 
      12 C4          10.5060    10.2671     9.5875 C4            1 Polymer 
      13 C4           9.0220    10.0170     9.2587 C4            1 Polymer 
      14 C4           8.4272     8.8406    10.0612 C4            1 Polymer 
      15 C4           6.9350     8.5602     9.8040 C4            1 Polymer 
      16 C4           5.9152     9.4162    10.5851 C4            1 Polymer 
      17 C4           5.9349    10.9184    10.2914 C4            1 Polymer 
      18 C4           4.7739    11.6268    10.9826 C4            1 Polymer 
      19 H5          11.2659     8.8847     8.1189 H5            1 Polymer 
      20 H5          11.1307     8.1721     9.7621 H5            1 Polymer 
      21 H6          10.5999    10.4985    10.6705 H6            1 Polymer 
      22 H6          10.8406    11.1598     9.0146 H6            1 Polymer 
      23 H6           8.9073     9.8180     8.1707 H6            1 Polymer 
      24 H6           8.4988    10.9584     9.4741 H6            1 Polymer 
      25 H6           8.6004     8.9674    11.1457 H6            1 Polymer 
      26 H6           8.9632     7.9273     9.7321 H6            1 Polymer 
      27 H6           6.7300     8.5780     8.7117 H6            1 Polymer 
      28 H6           6.7460     7.5204    10.1540 H6            1 Polymer 
      29 H6           4.9098     9.0223    10.3162 H6            1 Polymer 
      30 H6           6.0614     9.2605    11.6771 H6            1 Polymer 
      31 H6           5.8576    11.0893     9.1958 H6            1 Polymer 
      32 H6           6.8625    11.3677    10.6912 H6            1 Polymer 
      33 H6           4.8354    11.4847    12.0828 H6            1 Polymer 
      34 H6           4.8194    12.7139    10.7606 H6            1 Polymer 
      35 H6           3.8043    11.2290    10.6146 H6            1 Polymer 
      36 S2          17.0172    11.3445    13.5820 S2            1 Polymer 
      37 C0          16.1667    12.0796    14.8221 C0            1 Polymer 
      38 C0          16.6348    12.6003    16.0396 C0            1 Polymer 
      39 O7          17.9042    12.5269    16.5190 O7            1 Polymer 
      40 C4          19.1122    12.6539    15.8796 C4            1 Polymer 
      41 C4          20.2692    12.3499    16.8761 C4            1 Polymer 
      42 C4          20.1409    13.1234    18.2174 C4            1 Polymer 
      43 C4          20.0483    14.6377    18.0645 C4            1 Polymer 
      44 C4          20.3973    10.8375    17.2237 C4            1 Polymer 
      45 C4          20.5726     9.8800    16.0309 C4            1 Polymer 
      46 C4          21.7770    10.2280    15.1441 C4            1 Polymer 
      47 C4          21.9201     9.2297    14.0017 C4            1 Polymer 
      48 C0          15.6732    13.1337    16.8821 C0            1 Polymer 
      49 C0          15.9573    13.6375    18.2108 C0            1 Polymer 
      50 C0          14.8021    13.2461    19.0297 C0            1 Polymer 
      51 S2          13.3629    13.6973    17.9896 S2            1 Polymer 
      52 C0          14.3083    13.1107    16.5938 C0            1 Polymer 
      53 C0          13.8200    12.5835    15.3725 C0            1 Polymer 
      54 O7          12.4961    12.5007    15.0183 O7            1 Polymer 
      55 C4          11.3954    12.7298    15.8318 C4            1 Polymer 
      56 C4          10.0398    12.4130    15.1501 C4            1 Polymer 
      57 C4           9.6161    13.5908    14.2454 C4            1 Polymer 
      58 C4           8.1540    13.4945    13.7949 C4            1 Polymer 
      59 C4          10.0168    11.0482    14.3918 C4            1 Polymer 
      60 C4          10.2978     9.8348    15.2906 C4            1 Polymer 
      61 C4          10.3219     8.4848    14.5625 C4            1 Polymer 
      62 C4           8.9451     8.0498    14.0695 C4            1 Polymer 
      63 C0          14.7969    12.0612    14.5028 C0            1 Polymer 
      64 C0          14.5186    11.4533    13.2785 C0            1 Polymer 
      65 C0          15.6632    10.9940    12.6335 C0            1 Polymer 
      66 H5          19.1957    13.6993    15.5213 H5            1 Polymer 
      67 H5          19.1911    11.9998    14.9965 H5            1 Polymer 
      68 H6          21.2148    12.6663    16.3874 H6            1 Polymer 
      69 H6          21.0331    12.9016    18.8447 H6            1 Polymer 
      70 H6          19.2459    12.7718    18.7772 H6            1 Polymer 
      71 H6          20.0070    15.1021    19.0730 H6            1 Polymer 
      72 H6          20.9379    15.0254    17.5262 H6            1 Polymer 
      73 H6          19.1236    14.9225    17.5213 H6            1 Polymer 
      74 H6          19.5031    10.5052    17.7961 H6            1 Polymer 
      75 H6          21.2841    10.7093    17.8873 H6            1 Polymer 
      76 H6          19.6476     9.8696    15.4179 H6            1 Polymer 
      77 H6          20.7091     8.8536    16.4379 H6            1 Polymer 
      78 H6          22.7086    10.2239    15.7526 H6            1 Polymer 
      79 H6          21.6435    11.2359    14.6986 H6            1 Polymer 
      80 H6          21.0019     9.2308    13.3754 H6            1 Polymer 
      81 H6          22.7839     9.5144    13.3648 H6            1 Polymer 
      82 H6          22.0903     8.2073    14.4003 H6            1 Polymer 
      83 H8          16.9625    13.6620    18.6113 H8            1 Polymer 
      84 H5          11.4681    12.0742    16.7063 H5            1 Polymer 
      85 H5          11.3849    13.7756    16.2030 H5            1 Polymer 
      86 H6           9.2898    12.3845    15.9685 H6            1 Polymer 
      87 H6          10.2924    13.6801    13.3699 H6            1 Polymer 
      88 H6           9.6871    14.5298    14.8396 H6            1 Polymer 
      89 H6           7.8765    14.4132    13.2391 H6            1 Polymer 
      90 H6           7.4861    13.4095    14.6812 H6            1 Polymer 
      91 H6           7.9828    12.6293    13.1259 H6            1 Polymer 
      92 H6          10.7649    11.0774    13.5705 H6            1 Polymer 
      93 H6           9.0161    10.8970    13.9509 H6            1 Polymer 
      94 H6           9.5317     9.7770    16.0880 H6            1 Polymer 
      95 H6          11.3000     9.9650    15.7194 H6            1 Polymer 
      96 H6          10.6726     7.7105    15.2809 H6            1 Polymer 
      97 H6          11.0444     8.5243    13.7202 H6            1 Polymer 
      98 H6           9.0293     7.0623    13.5687 H6            1 Polymer 
      99 H6           8.2444     7.9546    14.9262 H6            1 Polymer 
     100 H6           8.5308     8.7781    13.3515 H6            1 Polymer 
     101 H8          13.5195    11.3879    12.8895 H8            1 Polymer 
     102 C0          12.6365    10.6770    18.7320 C0            1 Polymer 
     103 O1          12.6239    10.2420    17.5932 O1            1 Polymer 
     104 C0          13.8726    10.7858    19.5331 C0            1 Polymer 
     105 C0          15.0273    11.7074    19.2209 C0            1 Polymer 
     106 S2          15.9628    11.5153    20.7632 S2            1 Polymer 
     107 C0          14.3495    11.7625    21.5385 C0            1 Polymer 
     108 C0          13.3677    11.3212    20.7677 C0            1 Polymer 
     109 C0          11.9105    11.3365    20.6922 C0            1 Polymer 
     110 O1          11.1338    11.6111    21.5829 O1            1 Polymer 
     111 N3          11.5225    10.9636    19.4560 N3            1 Polymer 
     112 C4          10.1486    10.8171    19.0159 C4            1 Polymer 
     113 C4           9.3138    12.1120    19.1285 C4            1 Polymer 
     114 C4           7.8510    11.9333    18.6522 C4            1 Polymer 
     115 C4           7.1108    10.8164    19.4204 C4            1 Polymer 
     116 C4           5.6273    10.6181    19.0604 C4            1 Polymer 
     117 C4           4.6095    11.5092    19.8014 C4            1 Polymer 
     118 C4           4.6834    13.0079    19.5017 C4            1 Polymer 
     119 C4           3.5351    13.7490    20.1846 C4            1 Polymer 
     120 H5          10.1326    10.4845    17.9725 H5            1 Polymer 
     121 H5           9.6988    10.0247    19.6425 H5            1 Polymer 
     122 H6           9.2895    12.4556    20.1832 H6            1 Polymer 
     123 H6           9.7879    12.9132    18.5199 H6            1 Polymer 
     124 H6           7.8247    11.6851    17.5731 H6            1 Polymer 
     125 H6           7.3529    12.9093    18.7789 H6            1 Polymer 
     126 H6           7.2095    10.9469    20.5108 H6            1 Polymer 
     127 H6           7.6082     9.8662    19.1381 H6            1 Polymer 
     128 H6           5.4867    10.6522    17.9586 H6            1 Polymer 
     129 H6           5.3679     9.5866    19.3898 H6            1 Polymer 
     130 H6           3.6005    11.1480    19.5016 H6            1 Polymer 
     131 H6           4.7144    11.3513    20.8982 H6            1 Polymer 
     132 H6           4.6166    13.1744    18.4050 H6            1 Polymer 
     133 H6           5.6268    13.4295    19.8959 H6            1 Polymer 
     134 H6           3.5863    13.6109    21.2862 H6            1 Polymer 
     135 H6           3.6031    14.8337    19.9587 H6            1 Polymer 
     136 H6           2.5567    13.3713    19.8169 H6            1 Polymer 
     137 S2          15.5864    13.0269    23.5888 S2            1 Polymer 
     138 C0          14.7674    14.0935    24.5554 C0            1 Polymer 
     139 C0          15.2668    14.8174    25.6256 C0            1 Polymer 
     140 O7          16.5385    14.7011    26.0891 O7            1 Polymer 
     141 C4          17.7035    14.7904    25.3546 C4            1 Polymer 
     142 C4          18.9392    14.4761    26.2332 C4            1 Polymer 
     143 C4          18.9136    15.2565    27.5717 C4            1 Polymer 
     144 C4          18.8084    16.7696    27.3948 C4            1 Polymer 
     145 C4          19.1090    12.9601    26.5482 C4            1 Polymer 
     146 C4          19.2563    12.0194    25.3304 C4            1 Polymer 
     147 C4          20.4390    12.3815    24.4164 C4            1 Polymer 
     148 C4          20.5820    11.3802    23.2720 C4            1 Polymer 
     149 C0          14.3261    15.5525    26.3352 C0            1 Polymer 
     150 C0          14.5914    16.1690    27.6154 C0            1 Polymer 
     151 C0          13.4314    15.7446    28.4269 C0            1 Polymer 
     152 S2          12.0062    16.2308    27.3585 S2            1 Polymer 
     153 C0          12.9548    15.5287    26.0319 C0            1 Polymer 
     154 C0          12.4562    14.8335    24.9075 C0            1 Polymer 
     155 O7          11.1407    14.7211    24.5214 O7            1 Polymer 
     156 C4           9.9924    14.9769    25.2534 C4            1 Polymer 
     157 C4           8.6900    14.6146    24.4824 C4            1 Polymer 
     158 C4           8.3125    15.7690    23.5313 C4            1 Polymer 
     159 C4           6.8718    15.6554    23.0056 C4            1 Polymer 
     160 C4           8.7136    13.2283    23.7486 C4            1 Polymer 
     161 C4           8.9033    12.0127    24.6776 C4            1 Polymer 
     162 C4           8.9278    10.6458    23.9818 C4            1 Polymer 
     163 C4           7.5887    10.2265    23.4197 C4            1 Polymer 
     164 C0          13.4152    14.1092    24.2001 C0            1 Polymer 
     165 C0          13.1227    13.2836    23.1411 C0            1 Polymer 
     166 C0          14.2420    12.6079    22.6921 C0            1 Polymer 
     167 H5          17.7698    15.8287    24.9732 H5            1 Polymer 
     168 H5          17.7179    14.1392    24.4704 H5            1 Polymer 
     169 H6          19.8361    14.7997    25.6659 H6            1 Polymer 
     170 H6          19.8527    15.0414    28.1273 H6            1 Polymer 
     171 H6          18.0614    14.9115    28.1992 H6            1 Polymer 
     172 H6          18.8425    17.2573    28.3910 H6            1 Polymer 
     173 H6          19.6521    17.1425    26.7781 H6            1 Polymer 
     174 H6          17.8466    17.0480    26.9168 H6            1 Polymer 
     175 H6          18.2490    12.6041    27.1568 H6            1 Polymer 
     176 H6          20.0286    12.8377    27.1642 H6            1 Polymer 
     177 H6          18.3182    12.0041    24.7396 H6            1 Polymer 
     178 H6          19.4153    10.9893    25.7214 H6            1 Polymer 
     179 H6          21.3821    12.3892    25.0050 H6            1 Polymer 
     180 H6          20.2825    13.3860    23.9716 H6            1 Polymer 
     181 H6          19.6578    11.3624    22.6557 H6            1 Polymer 
     182 H6          21.4342    11.6751    22.6232 H6            1 Polymer 
     183 H6          20.7764    10.3614    23.6698 H6            1 Polymer 
     184 H8          15.5947    16.1817    28.0229 H8            1 Polymer 
     185 H5          10.0097    14.3566    26.1490 H5            1 Polymer 
     186 H5           9.9542    16.0279    25.5952 H5            1 Polymer 
     187 H6           7.8858    14.5948    25.2471 H6            1 Polymer 
     188 H6           9.0324    15.8415    22.6955 H6            1 Polymer 
     189 H6           8.3431    16.7169    24.1106 H6            1 Polymer 
     190 H6           6.6237    16.5649    22.4213 H6            1 Polymer 
     191 H6           6.1623    15.5834    23.8565 H6            1 Polymer 
     192 H6           6.7389    14.7808    22.3431 H6            1 Polymer 
     193 H6           9.5113    13.2412    22.9733 H6            1 Polymer 
     194 H6           7.7431    13.0803    23.2305 H6            1 Polymer 
     195 H6           8.0901    11.9965    25.4198 H6            1 Polymer 
     196 H6           9.8822    12.1336    25.1501 H6            1 Polymer 
     197 H6           9.2336     9.8707    24.7253 H6            1 Polymer 
     198 H6           9.6947    10.6299    23.1763 H6            1 Polymer 
     199 H6           7.6766     9.2263    22.9257 H6            1 Polymer 
     200 H6           6.8328    10.1420    24.2371 H6            1 Polymer 
     201 H6           7.2148    10.9529    22.6790 H6            1 Polymer 
     202 H8          12.1369    13.2277    22.7379 H8            1 Polymer 
     203 C0          11.3907    13.0055    27.9675 C0            1 Polymer 
     204 O1          11.4005    12.6517    26.8054 O1            1 Polymer 
     205 C0          12.6235    13.1525    28.7616 C0            1 Polymer 
     206 C0          13.6982    14.1852    28.5438 C0            1 Polymer 
     207 S2          14.6919    13.8909    30.0196 S2            1 Polymer 
     208 C0          13.0788    13.9483    30.8218 C0            1 Polymer 
     209 C0          12.1080    13.5282    30.0353 C0            1 Polymer 
     210 C0          10.6524    13.4613    29.9794 C0            1 Polymer 
     211 O1           9.8786    13.6142    30.9018 O1            1 Polymer 
     212 N3          10.2716    13.1559    28.7257 N3            1 Polymer 
     213 C4           8.8981    12.9434    28.2969 C4            1 Polymer 
     214 C4           8.0210    14.2040    28.4434 C4            1 Polymer 
     215 C4           6.5691    14.0095    27.9431 C4            1 Polymer 
     216 C4           5.8213    12.8947    28.6976 C4            1 Polymer 
     217 C4           4.3416    12.7055    28.3100 C4            1 Polymer 
     218 C4           3.3131    13.6078    29.0286 C4            1 Polymer 
     219 C4           3.3935    15.1064    28.7247 C4            1 Polymer 
     220 C4           2.2394    15.8545    29.3915 C4            1 Polymer 
     221 H5           8.8926    12.6393    27.2498 H5            1 Polymer 
     222 H5           8.4831    12.1096    28.8963 H5            1 Polymer 
     223 H6           7.9859    14.5209    29.5062 H6            1 Polymer 
     224 H6           8.4765    15.0312    27.8578 H6            1 Polymer 
     225 H6           6.5628    13.7589    26.8625 H6            1 Polymer 
     226 H6           6.0642    14.9812    28.0572 H6            1 Polymer 
     227 H6           5.8972    13.0330    29.7875 H6            1 Polymer 
     228 H6           6.3316    11.9454    28.4330 H6            1 Polymer 
     229 H6           4.2200    12.7360    27.2061 H6            1 Polymer 
     230 H6           4.0689    11.6774    28.6389 H6            1 Polymer 
     231 H6           2.3075    13.2496    28.7135 H6            1 Polymer 
     232 H6           3.3981    13.4549    30.1276 H6            1 Polymer 
     233 H6           3.3407    15.2700    27.6267 H6            1 Polymer 
     234 H6           4.3313    15.5288    29.1303 H6            1 Polymer 
     235 H6           2.2776    15.7208    30.4942 H6            1 Polymer 
     236 H6           2.3142    16.9384    29.1632 H6            1 Polymer 
     237 H6           1.2635    15.4800    29.0145 H6            1 Polymer 
     238 S2          14.2816    15.1000    32.9234 S2            1 Polymer 
     239 C0          13.4562    16.1769    33.8583 C0            1 Polymer 
     240 C0          13.9606    16.9227    34.9027 C0            1 Polymer 
     241 O7          15.2385    16.8098    35.3541 O7            1 Polymer 
     242 C4          16.3919    16.9075    34.5983 C4            1 Polymer 
     243 C4          17.6434    16.5913    35.4503 C4            1 Polymer 
     244 C4          17.6369    17.3649    36.7917 C4            1 Polymer 
     245 C4          17.5226    18.8784    36.6213 C4            1 Polymer 
     246 C4          17.8195    15.0733    35.7538 C4            1 Polymer 
     247 C4          17.9593    14.1402    34.5284 C4            1 Polymer 
     248 C4          19.1398    14.5014    33.6106 C4            1 Polymer 
     249 C4          19.2774    13.5012    32.4635 C4            1 Polymer 
     250 C0          13.0222    17.6738    35.5957 C0            1 Polymer 
     251 C0          13.2827    18.2926    36.8708 C0            1 Polymer 
     252 C0          12.1247    17.8504    37.6757 C0            1 Polymer 
     253 S2          10.6984    18.3494    36.6115 S2            1 Polymer 
     254 C0          11.6481    17.6451    35.2910 C0            1 Polymer 
     255 C0          11.1501    16.9343    34.1788 C0            1 Polymer 
     256 O7           9.8403    16.8196    33.7793 O7            1 Polymer 
     257 C4           8.6859    17.0773    34.4935 C4            1 Polymer 
     258 C4           7.3895    16.7128    33.7096 C4            1 Polymer 
     259 C4           7.0196    17.8672    32.7517 C4            1 Polymer 
     260 C4           5.5858    17.7582    32.2182 C4            1 Polymer 
     261 C4           7.4191    15.3265    32.9717 C4            1 Polymer 
     262 C4           7.6100    14.1129    33.8996 C4            1 Polymer 
     263 C4           7.6151    12.7352    33.2137 C4            1 Polymer 
     264 C4           6.2523    12.3237    32.6713 C4            1 Polymer 
     265 C0          12.1055    16.1919    33.4964 C0            1 Polymer 
     266 C0          11.8175    15.3609    32.4469 C0            1 Polymer 
     267 C0          12.9458    14.7013    32.0164 C0            1 Polymer 
     268 H5          16.4481    17.9463    34.2184 H5            1 Polymer 
     269 H5          16.3992    16.2627    33.7097 H5            1 Polymer 
     270 H6          18.5305    16.9191    34.8694 H6            1 Polymer 
     271 H6          18.5856    17.1508    37.3311 H6            1 Polymer 
     272 H6          16.7956    17.0140    37.4299 H6            1 Polymer 
     273 H6          17.5679    19.3626    37.6183 H6            1 Polymer 
     274 H6          18.3555    19.2570    35.9934 H6            1 Polymer 
     275 H6          16.5529    19.1541    36.1578 H6            1 Polymer 
     276 H6          16.9641    14.7135    36.3680 H6            1 Polymer 
     277 H6          18.7431    14.9500    36.3623 H6            1 Polymer 
     278 H6          17.0193    14.1285    33.9415 H6            1 Polymer 
     279 H6          18.1178    13.1084    34.9157 H6            1 Polymer 
     280 H6          20.0849    14.5064    34.1960 H6            1 Polymer 
     281 H6          18.9833    15.5081    33.1698 H6            1 Polymer 
     282 H6          18.3517    13.4851    31.8507 H6            1 Polymer 
     283 H6          20.1278    13.7966    31.8123 H6            1 Polymer 
     284 H6          19.4733    12.4820    32.8588 H6            1 Polymer 
     285 H8          14.2866    18.3016    37.2785 H8            1 Polymer 
     286 H5           8.6944    16.4628    35.3928 H5            1 Polymer 
     287 H5           8.6456    18.1340    34.8309 H5            1 Polymer 
     288 H6           6.5804    16.6954    34.4668 H6            1 Polymer 
     289 H6           7.7477    17.9405    31.9169 H6            1 Polymer 
     290 H6           7.0506    18.8194    33.3271 H6            1 Polymer 
     291 H6           5.3384    18.6669    31.6323 H6            1 Polymer 
     292 H6           4.8682    17.6878    33.0663 H6            1 Polymer 
     293 H6           5.4521    16.8815    31.5557 H6            1 Polymer 
     294 H6           8.2215    15.3371    32.2037 H6            1 Polymer 
     295 H6           6.4539    15.1772    32.4578 H6            1 Polymer 
     296 H6           6.7997    14.0971    34.6533 H6            1 Polymer 
     297 H6           8.5928    14.2194    34.3751 H6            1 Polymer 
     298 H6           7.9162    11.9679    33.9608 H6            1 Polymer 
     299 H6           8.3603    12.7106    32.4058 H6            1 Polymer 
     300 H6           6.3380    11.3332    32.1737 H6            1 Polymer 
     301 H6           5.5199    12.2436    33.5007 H6            1 Polymer 
     302 H6           5.8805    13.0605    31.9418 H6            1 Polymer 
     303 H8          10.8397    15.3135    32.0162 H8            1 Polymer 
     304 C0          10.0979    15.0995    37.1942 C0            1 Polymer 
     305 O1          10.1023    14.7501    36.0304 O1            1 Polymer 
     306 C0          11.3329    15.2437    37.9851 C0            1 Polymer 
     307 C0          12.3989    16.2860    37.7703 C0            1 Polymer 
     308 S2          13.4073    15.9820    39.2308 S2            1 Polymer 
     309 C0          11.7981    16.0483    40.0378 C0            1 Polymer 
     310 C0          10.8222    15.6190    39.2601 C0            1 Polymer 
     311 C0           9.3662    15.5504    39.2097 C0            1 Polymer 
     312 O1           8.5944    15.7022    40.1340 O1            1 Polymer 
     313 N3           8.9810    15.2477    37.9557 N3            1 Polymer 
     314 C4           7.6066    15.0399    37.5290 C4            1 Polymer 
     315 C4           6.7353    16.3043    37.6806 C4            1 Polymer 
     316 C4           5.2840    16.1195    37.1767 C4            1 Polymer 
     317 C4           4.5334    14.9972    37.9164 C4            1 Polymer 
     318 C4           3.0546    14.8128    37.5226 C4            1 Polymer 
     319 C4           2.0250    15.7096    38.2448 C4            1 Polymer 
     320 C4           2.0980    17.2093    37.9433 C4            1 Polymer 
     321 C4           0.9416    17.9500    38.6144 C4            1 Polymer 
     322 H5           7.5996    14.7409    36.4795 H5            1 Polymer 
     323 H5           7.1902    14.2054    38.1238 H5            1 Polymer 
     324 H6           6.7002    16.6132    38.7456 H6            1 Polymer 
     325 H6           7.1948    17.1339    37.1021 H6            1 Polymer 
     326 H6           5.2782    15.8814    36.0934 H6            1 Polymer 
     327 H6           4.7821    17.0914    37.3014 H6            1 Polymer 
     328 H6           4.6069    15.1211    39.0091 H6            1 Polymer 
     329 H6           5.0431    14.0509    37.6404 H6            1 Polymer 
     330 H6           2.9361    14.8516    36.4181 H6            1 Polymer 
     331 H6           2.7817    13.7824    37.8427 H6            1 Polymer 
     332 H6           1.0204    15.3488    37.9298 H6            1 Polymer 
     333 H6           2.1119    15.5540    39.3432 H6            1 Polymer 
     334 H6           2.0412    17.3744    36.8457 H6            1 Polymer 
     335 H6           3.0342    17.6366    38.3466 H6            1 Polymer 
     336 H6           0.9841    17.8152    39.7167 H6            1 Polymer 
     337 H6           1.0089    19.0346    38.3870 H6            1 Polymer 
     338 H6          -0.0333    17.5700    38.2401 H6            1 Polymer 
     339 S2          13.0107    17.2303    42.1190 S2            1 Polymer 
     340 C0          12.1780    18.2803    43.0780 C0            1 Polymer 
     341 C0          12.6773    19.0191    44.1307 C0            1 Polymer 
     342 O7          13.9616    18.9325    44.5696 O7            1 Polymer 
     343 C4          15.1172    19.0209    43.8139 C4            1 Polymer 
     344 C4          16.3603    18.7036    44.6780 C4            1 Polymer 
     345 C4          16.3411    19.4832    46.0165 C4            1 Polymer 
     346 C4          16.2275    20.9959    45.8404 C4            1 Polymer 
     347 C4          16.5219    17.1859    44.9902 C4            1 Polymer 
     348 C4          16.6601    16.2435    43.7718 C4            1 Polymer 
     349 C4          17.8413    16.5983    42.8531 C4            1 Polymer 
     350 C4          17.9752    15.5952    41.7088 C4            1 Polymer 
     351 C0          11.7320    19.7493    44.8374 C0            1 Polymer 
     352 C0          11.9978    20.4079    46.0903 C0            1 Polymer 
     353 C0          10.8206    20.0585    46.9095 C0            1 Polymer 
     354 S2           9.4019    20.4796    45.8176 S2            1 Polymer 
     355 C0          10.3589    19.7195    44.5325 C0            1 Polymer 
     356 C0           9.8664    19.0077    43.4196 C0            1 Polymer 
     357 O7           8.5578    18.8947    43.0202 O7            1 Polymer 
     358 C4           7.4107    19.1210    43.7545 C4            1 Polymer 
     359 C4           6.1117    18.7843    42.9718 C4            1 Polymer 
     360 C4           5.7560    19.9474    42.0187 C4            1 Polymer 
     361 C4           4.3244    19.8542    41.4767 C4            1 Polymer 
     362 C4           6.1363    17.4042    42.2341 C4            1 Polymer 
     363 C4           6.3449    16.1973    43.1683 C4            1 Polymer 
     364 C4           6.3395    14.8232    42.4737 C4            1 Polymer 
     365 C4           4.9762    14.4273    41.9166 C4            1 Polymer 
     366 C0          10.8252    18.2815    42.7251 C0            1 Polymer 
     367 C0          10.5395    17.4582    41.6687 C0            1 Polymer 
     368 C0          11.6706    16.8131    41.2255 C0            1 Polymer 
     369 H5          15.1816    20.0567    43.4241 H5            1 Polymer 
     370 H5          15.1287    18.3693    42.9307 H5            1 Polymer 
     371 H6          17.2556    19.0239    44.1052 H6            1 Polymer 
     372 H6          17.2822    19.2693    46.5683 H6            1 Polymer 
     373 H6          15.4915    19.1356    46.6462 H6            1 Polymer 
     374 H6          16.2593    21.4828    46.8369 H6            1 Polymer 
     375 H6          17.0676    21.3741    45.2220 H6            1 Polymer 
     376 H6          15.2632    21.2699    45.3646 H6            1 Polymer 
     377 H6          15.6597    16.8356    45.5990 H6            1 Polymer 
     378 H6          17.4411    17.0568    45.6049 H6            1 Polymer 
     379 H6          15.7207    16.2322    43.1833 H6            1 Polymer 
     380 H6          16.8140    15.2126    44.1627 H6            1 Polymer 
     381 H6          18.7865    16.6016    43.4384 H6            1 Polymer 
     382 H6          17.6878    17.6030    42.4082 H6            1 Polymer 
     383 H6          17.0485    15.5807    41.0960 H6            1 Polymer 
     384 H6          18.8259    15.8860    41.0561 H6            1 Polymer 
     385 H6          18.1669    14.5758    42.1063 H6            1 Polymer 
     386 H8          12.9994    20.4201    46.5027 H8            1 Polymer 
     387 H5           7.4334    18.4689    44.6284 H5            1 Polymer 
     388 H5           7.3628    20.1657    44.1216 H5            1 Polymer 
     389 H6           5.3029    18.7670    43.7291 H6            1 Polymer 
     390 H6           6.4879    20.0178    41.1869 H6            1 Polymer 
     391 H6           5.7949    20.8963    42.5991 H6            1 Polymer 
     392 H6           4.0895    20.7668    40.8915 H6            1 Polymer 
     393 H6           3.6012    19.7887    42.3202 H6            1 Polymer 
     394 H6           4.1870    18.9800    40.8114 H6            1 Polymer 
     395 H6           6.9307    17.4151    41.4575 H6            1 Polymer 
     396 H6           5.1646    17.2581    41.7303 H6            1 Polymer 
     397 H6           5.5469    16.1848    43.9354 H6            1 Polymer 
     398 H6           7.3347    16.3065    43.6425 H6            1 Polymer 
     399 H6           6.6309    14.0495    43.2171 H6            1 Polymer 
     400 H6           7.0881    14.7993    41.6677 H6            1 Polymer 
     401 H6           5.0551    13.4364    41.4190 H6            1 Polymer 
     402 H6           4.2330    14.3564    42.7372 H6            1 Polymer 
     403 H6           4.6203    15.1646    41.1786 H6            1 Polymer 
     404 H8           9.5587    17.3989    41.2470 H8            1 Polymer 
     405 C0           8.7189    17.2813    46.6260 C0            1 Polymer 
     406 O1           8.7609    16.7752    45.5112 O1            1 Polymer 
     407 C0           9.9214    17.5657    47.4286 C0            1 Polymer 
     408 C0          11.0463    18.5181    47.1441 C0            1 Polymer 
     409 S2          11.9549    18.3638    48.6921 S2            1 Polymer 
     410 C0          10.3148    18.5383    49.4411 C0            1 Polymer 
     411 C0           9.3607    18.0947    48.6379 C0            1 Polymer 
     412 C0           7.9042    18.0040    48.5406 C0            1 Polymer 
     413 O1           7.0976    18.2935    49.3889 O1            1 Polymer 
     414 N3           7.5782    17.5290    47.3099 N3            1 Polymer 
     415 C4           6.2241    17.2412    46.8655 C4            1 Polymer 
     416 C4           5.3303    18.4982    46.8438 C4            1 Polymer 
     417 C4           3.8979    18.2257    46.3375 C4            1 Polymer 
     418 C4           3.1790    17.1356    47.1560 C4            1 Polymer 
     419 C4           1.7072    16.9031    46.7731 C4            1 Polymer 
     420 C4           0.6751    17.8072    47.4784 C4            1 Polymer 
     421 C4           0.7592    19.3032    47.1636 C4            1 Polymer 
     422 C4          -0.3883    20.0575    47.8320 C4            1 Polymer 
     423 H5           6.2539    16.8105    45.8527 H5            1 Polymer 
     424 H5           5.8000    16.4821    47.5456 H5            1 Polymer 
     425 H6           5.2579    18.9216    47.8655 H6            1 Polymer 
     426 H6           5.7892    19.2717    46.1900 H6            1 Polymer 
     427 H6           3.9157    17.9008    45.2765 H6            1 Polymer 
     428 H6           3.3644    19.1886    46.3724 H6            1 Polymer 
     429 H6           3.2525    17.3218    48.2452 H6            1 Polymer 
     430 H6           3.7082    16.1860    46.9291 H6            1 Polymer 
     431 H6           1.5853    16.9104    45.6680 H6            1 Polymer 
     432 H6           1.4526    15.8776    47.1221 H6            1 Polymer 
     433 H6          -0.3292    17.4434    47.1677 H6            1 Polymer 
     434 H6           0.7640    17.6657    48.5786 H6            1 Polymer 
     435 H6           0.7033    19.4601    46.0647 H6            1 Polymer 
     436 H6           1.7007    19.7251    47.5637 H6            1 Polymer 
     437 H6          -0.3418    19.9302    48.9351 H6            1 Polymer 
     438 H6          -0.3125    21.1397    47.5962 H6            1 Polymer 
     439 H6          -1.3665    19.6809    47.4637 H6            1 Polymer 
     440 S2          11.5369    19.5172    51.6148 S2            1 Polymer 
     441 C0          10.7380    20.2363    52.8698 C0            1 Polymer 
     442 C0          11.2692    20.7230    54.0586 C0            1 Polymer 
     443 O7          12.6082    20.7148    54.3421 O7            1 Polymer 
     444 C4          13.6484    20.9648    53.4455 C4            1 Polymer 
     445 C4          15.0275    20.7693    54.1017 C4            1 Polymer 
     446 C4          15.1437    21.5891    55.4048 C4            1 Polymer 
     447 C4          14.9534    23.0918    55.1861 C4            1 Polymer 
     448 C4          15.3333    19.2687    54.3864 C4            1 Polymer 
     449 C4          15.4129    18.3356    53.1493 C4            1 Polymer 
     450 C4          16.5210    18.7282    52.1554 C4            1 Polymer 
     451 C4          16.6222    17.7268    51.0050 C4            1 Polymer 
     452 C0          10.3284    21.2089    54.9843 C0            1 Polymer 
     453 C0          10.6590    21.7427    56.2874 C0            1 Polymer 
     454 C0           9.5307    22.1592    56.9605 C0            1 Polymer 
     455 S2           7.9864    21.9235    56.0662 S2            1 Polymer 
     456 C0           8.9445    21.2365    54.7132 C0            1 Polymer 
     457 C0           8.4428    20.7612    53.4665 C0            1 Polymer 
     458 O7           7.1413    20.7328    53.0619 O7            1 Polymer 
     459 C4           5.9822    20.8065    53.7843 C4            1 Polymer 
     460 C4           4.7349    20.6334    52.8689 C4            1 Polymer 
     461 C4           4.5778    21.8942    51.9681 C4            1 Polymer 
     462 C4           3.2747    21.9139    51.1604 C4            1 Polymer 
     463 C4           4.8166    19.3451    51.9771 C4            1 Polymer 
     464 C4           5.0552    18.0434    52.7583 C4            1 Polymer 
     465 C4           5.0916    16.7959    51.8530 C4            1 Polymer 
     466 C4           3.7464    16.4738    51.2006 C4            1 Polymer 
     467 C0           9.3791    20.2510    52.5775 C0            1 Polymer 
     468 C0           9.0632    19.6841    51.3483 C0            1 Polymer 
     469 C0          10.1884    19.2107    50.7031 C0            1 Polymer 
     470 H5          13.5436    22.0010    53.0628 H5            1 Polymer 
     471 H5          13.6528    20.3240    52.5630 H5            1 Polymer 
     472 H6          15.8044    21.1412    53.3997 H6            1 Polymer 
     473 H6          16.1571    21.4342    55.8339 H6            1 Polymer 
     474 H6          14.3960    21.2322    56.1462 H6            1 Polymer 
     475 H6          15.0872    23.6240    56.1494 H6            1 Polymer 
     476 H6          15.7000    23.4709    54.4563 H6            1 Polymer 
     477 H6          13.9317    23.3210    54.8188 H6            1 Polymer 
     478 H6          14.5600    18.8653    55.0758 H6            1 Polymer 
     479 H6          16.3155    19.2011    54.9035 H6            1 Polymer 
     480 H6          14.4379    18.2848    52.6224 H6            1 Polymer 
     481 H6          15.6321    17.3102    53.5209 H6            1 Polymer 
     482 H6          17.4993    18.7594    52.6825 H6            1 Polymer 
     483 H6          16.3142    19.7278    51.7204 H6            1 Polymer 
     484 H6          15.6687    17.6879    50.4353 H6            1 Polymer 
     485 H6          17.4330    18.0397    50.3136 H6            1 Polymer 
     486 H6          16.8606    16.7117    51.3904 H6            1 Polymer 
     487 H8          11.6651    21.8138    56.6790 H8            1 Polymer 
     488 H5           5.9772    19.9999    54.5536 H5            1 Polymer 
     489 H5           5.9056    21.7818    54.3160 H5            1 Polymer 
     490 H6           3.8550    20.5679    53.5198 H6            1 Polymer 
     491 H6           5.4410    21.9902    51.2727 H6            1 Polymer 
     492 H6           4.5617    22.7905    52.6241 H6            1 Polymer 
     493 H6           3.2010    22.8712    50.6032 H6            1 Polymer 
     494 H6           2.4002    21.8352    51.8412 H6            1 Polymer 
     495 H6           3.2348    21.0956    50.4139 H6            1 Polymer 
     496 H6           5.6309    19.4621    51.2300 H6            1 Polymer 
     497 H6           3.8597    19.2559    51.4342 H6            1 Polymer 
     498 H6           4.2719    17.9128    53.5351 H6            1 Polymer 
     499 H6           6.0452    18.1069    53.2568 H6            1 Polymer 
     500 H6           5.3805    15.9216    52.4742 H6            1 Polymer 
     501 H6           5.8636    16.9188    51.0669 H6            1 Polymer 
     502 H6           3.8438    15.5522    50.5879 H6            1 Polymer 
     503 H6           2.9750    16.3023    51.9801 H6            1 Polymer 
     504 H6           3.4128    17.2904    50.5336 H6            1 Polymer 
     505 H8           8.0626    19.6298    50.9704 H8            1 Polymer 
     506 H9          15.8516    11.5041     8.3384 H9            1 Polymer 
     507 H9           9.5751    22.6009    57.9454 H9            1 Polymer 
@<TRIPOS>BOND
       1        2        1 1
       2        3        1 1
       3       10        1 1
       4        4        3 1
       5        7        3 1
       6        5        4 1
       7      506        4 1
       8        6        5 1
       9        7        6 1
      10       65        6 1
      11        8        7 1
      12        9        8 1
      13       10        8 1
      14       11       10 1
      15       12       11 1
      16       19       11 1
      17       20       11 1
      18       13       12 1
      19       21       12 1
      20       22       12 1
      21       14       13 1
      22       23       13 1
      23       24       13 1
      24       15       14 1
      25       25       14 1
      26       26       14 1
      27       16       15 1
      28       27       15 1
      29       28       15 1
      30       17       16 1
      31       29       16 1
      32       30       16 1
      33       18       17 1
      34       31       17 1
      35       32       17 1
      36       33       18 1
      37       34       18 1
      38       35       18 1
      39       37       36 1
      40       65       36 1
      41       38       37 1
      42       63       37 1
      43       39       38 1
      44       48       38 1
      45       40       39 1
      46       41       40 1
      47       66       40 1
      48       67       40 1
      49       42       41 1
      50       44       41 1
      51       68       41 1
      52       43       42 1
      53       69       42 1
      54       70       42 1
      55       71       43 1
      56       72       43 1
      57       73       43 1
      58       45       44 1
      59       74       44 1
      60       75       44 1
      61       46       45 1
      62       76       45 1
      63       77       45 1
      64       47       46 1
      65       78       46 1
      66       79       46 1
      67       80       47 1
      68       81       47 1
      69       82       47 1
      70       49       48 1
      71       52       48 1
      72       50       49 1
      73       83       49 1
      74       51       50 1
      75      105       50 1
      76       52       51 1
      77       53       52 1
      78       54       53 1
      79       63       53 1
      80       55       54 1
      81       56       55 1
      82       84       55 1
      83       85       55 1
      84       57       56 1
      85       59       56 1
      86       86       56 1
      87       58       57 1
      88       87       57 1
      89       88       57 1
      90       89       58 1
      91       90       58 1
      92       91       58 1
      93       60       59 1
      94       92       59 1
      95       93       59 1
      96       61       60 1
      97       94       60 1
      98       95       60 1
      99       62       61 1
     100       96       61 1
     101       97       61 1
     102       98       62 1
     103       99       62 1
     104      100       62 1
     105       64       63 1
     106       65       64 1
     107      101       64 1
     108      103      102 1
     109      104      102 1
     110      111      102 1
     111      105      104 1
     112      108      104 1
     113      106      105 1
     114      107      106 1
     115      108      107 1
     116      166      107 1
     117      109      108 1
     118      110      109 1
     119      111      109 1
     120      112      111 1
     121      113      112 1
     122      120      112 1
     123      121      112 1
     124      114      113 1
     125      122      113 1
     126      123      113 1
     127      115      114 1
     128      124      114 1
     129      125      114 1
     130      116      115 1
     131      126      115 1
     132      127      115 1
     133      117      116 1
     134      128      116 1
     135      129      116 1
     136      118      117 1
     137      130      117 1
     138      131      117 1
     139      119      118 1
     140      132      118 1
     141      133      118 1
     142      134      119 1
     143      135      119 1
     144      136      119 1
     145      138      137 1
     146      166      137 1
     147      139      138 1
     148      164      138 1
     149      140      139 1
     150      149      139 1
     151      141      140 1
     152      142      141 1
     153      167      141 1
     154      168      141 1
     155      143      142 1
     156      145      142 1
     157      169      142 1
     158      144      143 1
     159      170      143 1
     160      171      143 1
     161      172      144 1
     162      173      144 1
     163      174      144 1
     164      146      145 1
     165      175      145 1
     166      176      145 1
     167      147      146 1
     168      177      146 1
     169      178      146 1
     170      148      147 1
     171      179      147 1
     172      180      147 1
     173      181      148 1
     174      182      148 1
     175      183      148 1
     176      150      149 1
     177      153      149 1
     178      151      150 1
     179      184      150 1
     180      152      151 1
     181      206      151 1
     182      153      152 1
     183      154      153 1
     184      155      154 1
     185      164      154 1
     186      156      155 1
     187      157      156 1
     188      185      156 1
     189      186      156 1
     190      158      157 1
     191      160      157 1
     192      187      157 1
     193      159      158 1
     194      188      158 1
     195      189      158 1
     196      190      159 1
     197      191      159 1
     198      192      159 1
     199      161      160 1
     200      193      160 1
     201      194      160 1
     202      162      161 1
     203      195      161 1
     204      196      161 1
     205      163      162 1
     206      197      162 1
     207      198      162 1
     208      199      163 1
     209      200      163 1
     210      201      163 1
     211      165      164 1
     212      166      165 1
     213      202      165 1
     214      204      203 1
     215      205      203 1
     216      212      203 1
     217      206      205 1
     218      209      205 1
     219      207      206 1
     220      208      207 1
     221      209      208 1
     222      267      208 1
     223      210      209 1
     224      211      210 1
     225      212      210 1
     226      213      212 1
     227      214      213 1
     228      221      213 1
     229      222      213 1
     230      215      214 1
     231      223      214 1
     232      224      214 1
     233      216      215 1
     234      225      215 1
     235      226      215 1
     236      217      216 1
     237      227      216 1
     238      228      216 1
     239      218      217 1
     240      229      217 1
     241      230      217 1
     242      219      218 1
     243      231      218 1
     244      232      218 1
     245      220      219 1
     246      233      219 1
     247      234      219 1
     248      235      220 1
     249      236      220 1
     250      237      220 1
     251      239      238 1
     252      267      238 1
     253      240      239 1
     254      265      239 1
     255      241      240 1
     256      250      240 1
     257      242      241 1
     258      243      242 1
     259      268      242 1
     260      269      242 1
     261      244      243 1
     262      246      243 1
     263      270      243 1
     264      245      244 1
     265      271      244 1
     266      272      244 1
     267      273      245 1
     268      274      245 1
     269      275      245 1
     270      247      246 1
     271      276      246 1
     272      277      246 1
     273      248      247 1
     274      278      247 1
     275      279      247 1
     276      249      248 1
     277      280      248 1
     278      281      248 1
     279      282      249 1
     280      283      249 1
     281      284      249 1
     282      251      250 1
     283      254      250 1
     284      252      251 1
     285      285      251 1
     286      253      252 1
     287      307      252 1
     288      254      253 1
     289      255      254 1
     290      256      255 1
     291      265      255 1
     292      257      256 1
     293      258      257 1
     294      286      257 1
     295      287      257 1
     296      259      258 1
     297      261      258 1
     298      288      258 1
     299      260      259 1
     300      289      259 1
     301      290      259 1
     302      291      260 1
     303      292      260 1
     304      293      260 1
     305      262      261 1
     306      294      261 1
     307      295      261 1
     308      263      262 1
     309      296      262 1
     310      297      262 1
     311      264      263 1
     312      298      263 1
     313      299      263 1
     314      300      264 1
     315      301      264 1
     316      302      264 1
     317      266      265 1
     318      267      266 1
     319      303      266 1
     320      305      304 1
     321      306      304 1
     322      313      304 1
     323      307      306 1
     324      310      306 1
     325      308      307 1
     326      309      308 1
     327      310      309 1
     328      368      309 1
     329      311      310 1
     330      312      311 1
     331      313      311 1
     332      314      313 1
     333      315      314 1
     334      322      314 1
     335      323      314 1
     336      316      315 1
     337      324      315 1
     338      325      315 1
     339      317      316 1
     340      326      316 1
     341      327      316 1
     342      318      317 1
     343      328      317 1
     344      329      317 1
     345      319      318 1
     346      330      318 1
     347      331      318 1
     348      320      319 1
     349      332      319 1
     350      333      319 1
     351      321      320 1
     352      334      320 1
     353      335      320 1
     354      336      321 1
     355      337      321 1
     356      338      321 1
     357      340      339 1
     358      368      339 1
     359      341      340 1
     360      366      340 1
     361      342      341 1
     362      351      341 1
     363      343      342 1
     364      344      343 1
     365      369      343 1
     366      370      343 1
     367      345      344 1
     368      347      344 1
     369      371      344 1
     370      346      345 1
     371      372      345 1
     372      373      345 1
     373      374      346 1
     374      375      346 1
     375      376      346 1
     376      348      347 1
     377      377      347 1
     378      378      347 1
     379      349      348 1
     380      379      348 1
     381      380      348 1
     382      350      349 1
     383      381      349 1
     384      382      349 1
     385      383      350 1
     386      384      350 1
     387      385      350 1
     388      352      351 1
     389      355      351 1
     390      353      352 1
     391      386      352 1
     392      354      353 1
     393      408      353 1
     394      355      354 1
     395      356      355 1
     396      357      356 1
     397      366      356 1
     398      358      357 1
     399      359      358 1
     400      387      358 1
     401      388      358 1
     402      360      359 1
     403      362      359 1
     404      389      359 1
     405      361      360 1
     406      390      360 1
     407      391      360 1
     408      392      361 1
     409      393      361 1
     410      394      361 1
     411      363      362 1
     412      395      362 1
     413      396      362 1
     414      364      363 1
     415      397      363 1
     416      398      363 1
     417      365      364 1
     418      399      364 1
     419      400      364 1
     420      401      365 1
     421      402      365 1
     422      403      365 1
     423      367      366 1
     424      368      367 1
     425      404      367 1
     426      406      405 1
     427      407      405 1
     428      414      405 1
     429      408      407 1
     430      411      407 1
     431      409      408 1
     432      410      409 1
     433      411      410 1
     434      469      410 1
     435      412      411 1
     436      413      412 1
     437      414      412 1
     438      415      414 1
     439      416      415 1
     440      423      415 1
     441      424      415 1
     442      417      416 1
     443      425      416 1
     444      426      416 1
     445      418      417 1
     446      427      417 1
     447      428      417 1
     448      419      418 1
     449      429      418 1
     450      430      418 1
     451      420      419 1
     452      431      419 1
     453      432      419 1
     454      421      420 1
     455      433      420 1
     456      434      420 1
     457      422      421 1
     458      435      421 1
     459      436      421 1
     460      437      422 1
     461      438      422 1
     462      439      422 1
     463      441      440 1
     464      469      440 1
     465      442      441 1
     466      467      441 1
     467      443      442 1
     468      452      442 1
     469      444      443 1
     470      445      444 1
     471      470      444 1
     472      471      444 1
     473      446      445 1
     474      448      445 1
     475      472      445 1
     476      447      446 1
     477      473      446 1
     478      474      446 1
     479      475      447 1
     480      476      447 1
     481      477      447 1
     482      449      448 1
     483      478      448 1
     484      479      448 1
     485      450      449 1
     486      480      449 1
     487      481      449 1
     488      451      450 1
     489      482      450 1
     490      483      450 1
     491      484      451 1
     492      485      451 1
     493      486      451 1
     494      453      452 1
     495      456      452 1
     496      454      453 1
     497      487      453 1
     498      455      454 1
     499      507      454 1
     500      456      455 1
     501      457      456 1
     502      458      457 1
     503      467      457 1
     504      459      458 1
     505      460      459 1
     506      488      459 1
     507      489      459 1
     508      461      460 1
     509      463      460 1
     510      490      460 1
     511      462      461 1
     512      491      461 1
     513      492      461 1
     514      493      462 1
     515      494      462 1
     516      495      462 1
     517      464      463 1
     518      496      463 1
     519      497      463 1
     520      465      464 1
     521      498      464 1
     522      499      464 1
     523      466      465 1
     524      500      465 1
     525      501      465 1
     526      502      466 1
     527      503      466 1
     528      504      466 1
     529      468      467 1
     530      469      468 1
     531      505      468 1
@<TRIPOS>SUBSTRUCTURE
       1 Polymer         1 RESIDUE    0 **** ROOT      0
