@<TRIPOS>MOLECULE
Compound
377 391 1 0 1
SMALL
NO_CHARGES
@<TRIPOS>CRYSIN
   49.1933    34.7458    12.4680    90.0000    90.0000    90.0000  1  1
@<TRIPOS>ATOM
       1 C0          21.3497   -14.0433     0.6285 C0            1 Compound
       2 C0          20.5933   -12.7440     0.4106 C0            1 Compound
       3 C0          19.1730   -13.0421    -0.0546 C0            1 Compound
       4 C0          18.4282   -11.7490    -0.3115 C0            1 Compound
       5 C0          17.0309   -12.0597    -0.8394 C0            1 Compound
       6 C0          16.3345   -10.7692    -1.2096 C0            1 Compound
       7 C1          15.9935    -9.8911    -0.0660 C1            1 Compound
       8 C1          15.4646    -8.6668    -0.3803 C1            1 Compound
       9 C1          15.0374    -7.9353     0.6980 C1            1 Compound
      10 S2          15.2333    -8.8421     2.1009 S2            1 Compound
      11 C1          15.9840   -10.1517     1.3204 C1            1 Compound
      12 C1          14.1064    -6.9038     0.3433 C1            1 Compound
      13 C1          14.3482    -5.9385    -0.6326 C1            1 Compound
      14 C0          15.7135    -5.3962    -0.8769 C0            1 Compound
      15 C0          16.3700    -4.9485     0.4507 C0            1 Compound
      16 C0          17.8670    -4.6652     0.2925 C0            1 Compound
      17 C0          18.6410    -5.9643    -0.0134 C0            1 Compound
      18 C0          20.1343    -5.7207    -0.1870 C0            1 Compound
      19 C0          20.8435    -7.0374    -0.5000 C0            1 Compound
      20 C1          13.2306    -5.6621    -1.4369 C1            1 Compound
      21 C1          12.1590    -6.4940    -1.1231 C1            1 Compound
      22 S2          12.5535    -7.3497     0.2757 S2            1 Compound
      23 C1          10.7969    -6.4972    -1.6927 C1            1 Compound
      24 C1          10.0363    -7.5841    -1.1913 C1            1 Compound
      25 C0           9.9652    -9.0384    -1.6608 C0            1 Compound
      26 C0          11.2850    -9.8226    -1.5947 C0            1 Compound
      27 C0          11.0961   -11.2670    -1.1051 C0            1 Compound
      28 C0          12.4625   -11.9052    -0.8071 C0            1 Compound
      29 C0          12.3124   -13.2438    -0.0807 C0            1 Compound
      30 C0          13.6809   -13.8300     0.2523 C0            1 Compound
      31 C1           9.4624    -7.2591     0.0246 C1            1 Compound
      32 C1           9.6047    -5.9334     0.3533 C1            1 Compound
      33 S2          10.1923    -5.1309    -0.9717 S2            1 Compound
      34 C1           9.2163    -5.3966     1.6325 C1            1 Compound
      35 C1           9.4736    -4.1858     2.2988 C1            1 Compound
      36 C0          10.3802    -2.9862     2.0348 C0            1 Compound
      37 C0          11.3871    -3.0332     0.8921 C0            1 Compound
      38 C0          12.4210    -1.9082     1.0098 C0            1 Compound
      39 C0          13.4215    -1.9682    -0.1547 C0            1 Compound
      40 C0          14.4775    -0.8515    -0.0972 C0            1 Compound
      41 C0          15.4485    -0.9815     1.0788 C0            1 Compound
      42 C1           8.6436    -4.0820     3.4067 C1            1 Compound
      43 C1           7.6766    -5.0904     3.5017 C1            1 Compound
      44 S2           8.1563    -6.3084     2.5311 S2            1 Compound
      45 C1           6.4082    -4.4517     3.1776 C1            1 Compound
      46 C1           5.7526    -4.5490     1.9002 C1            1 Compound
      47 C0           5.7582    -5.6272     0.7732 C0            1 Compound
      48 C0           5.2322    -7.0096     1.2431 C0            1 Compound
      49 C0           5.0017    -8.1265     0.1737 C0            1 Compound
      50 C0           6.2248    -8.5030    -0.6746 C0            1 Compound
      51 C0           6.2410    -9.9825    -1.1189 C0            1 Compound
      52 C0           6.5745   -10.9176     0.0561 C0            1 Compound
      53 C1           5.1268    -3.3448     1.6411 C1            1 Compound
      54 C1           5.2631    -2.3994     2.6549 C1            1 Compound
      55 S2           6.0128    -3.0146     3.9717 S2            1 Compound
      56 C1           4.6067    -1.1409     2.6131 C1            1 Compound
      57 C1           4.5662    -0.5161     1.3645 C1            1 Compound
      58 C0           5.8182     0.0138     0.6927 C0            1 Compound
      59 C0           6.2607    -0.5240    -0.6831 C0            1 Compound
      60 C0           7.5147     0.2496    -1.2046 C0            1 Compound
      61 C0           8.7637     0.1087    -0.2996 C0            1 Compound
      62 C0           9.9372     1.0308    -0.6768 C0            1 Compound
      63 C0          10.5857     0.7099    -2.0168 C0            1 Compound
      64 C1           3.2791    -0.4669     0.8765 C1            1 Compound
      65 C1           2.3984    -0.9978     1.8139 C1            1 Compound
      66 S2           3.1024    -1.4253     3.2190 S2            1 Compound
      67 C1           1.0360    -1.2808     1.6670 C1            1 Compound
      68 C1           0.5041    -2.3296     0.9009 C1            1 Compound
      69 C0           1.2915    -2.9863    -0.2220 C0            1 Compound
      70 C0           1.9581    -4.3180    -0.0085 C0            1 Compound
      71 C0           0.9927    -5.4663     0.2777 C0            1 Compound
      72 C0           1.7265    -6.7602    -0.0622 C0            1 Compound
      73 C0           1.0623    -8.0526     0.4044 C0            1 Compound
      74 C0           1.1631    -8.2183     1.9200 C0            1 Compound
      75 C1          -0.8305    -2.0623     0.7262 C1            1 Compound
      76 C1          -0.8785    -0.6740     0.6918 C1            1 Compound
      77 S2          -0.0456    -0.0398     1.9956 S2            1 Compound
      78 C1          -0.3557    -0.1799    -0.6370 C1            1 Compound
      79 C1           0.4104     0.9389    -1.0459 C1            1 Compound
      80 C0           1.0207     1.9935    -0.1316 C0            1 Compound
      81 C0           1.8532     3.0822    -0.8484 C0            1 Compound
      82 C0           2.5424     4.0344     0.1528 C0            1 Compound
      83 C0           3.7916     3.4766     0.8672 C0            1 Compound
      84 C0           5.1249     3.8451     0.1830 C0            1 Compound
      85 C0           5.2477     3.4072    -1.2713 C0            1 Compound
      86 C1           0.4906     0.9886    -2.4641 C1            1 Compound
      87 C1          -0.3982     0.0958    -3.0837 C1            1 Compound
      88 S2          -0.5722    -1.1139    -2.0091 S2            1 Compound
      89 C1          -1.7668     0.7023    -3.0880 C1            1 Compound
      90 C1          -3.0237     0.0279    -2.8680 C1            1 Compound
      91 C0          -3.4315    -1.4549    -2.8475 C0            1 Compound
      92 C0          -3.7899    -1.8418    -1.3704 C0            1 Compound
      93 C0          -4.0409    -3.3146    -1.0270 C0            1 Compound
      94 C0          -2.8317    -4.2018    -1.3549 C0            1 Compound
      95 C0          -2.8940    -5.5929    -0.7032 C0            1 Compound
      96 C0          -2.7088    -5.5458     0.8206 C0            1 Compound
      97 C1          -3.9510     0.8918    -2.3873 C1            1 Compound
      98 C1          -3.4906     2.1685    -2.1371 C1            1 Compound
      99 S2          -1.9570     2.3440    -2.6581 S2            1 Compound
     100 C1          -4.3437     3.1244    -1.5277 C1            1 Compound
     101 C1          -4.2260     4.2238    -0.6324 C1            1 Compound
     102 C1          -5.4795     4.7968    -0.4889 C1            1 Compound
     103 C1          -6.4365     4.1321    -1.2133 C1            1 Compound
     104 S2          -5.8819     2.9143    -2.0330 S2            1 Compound
     105 C1          -7.7566     4.4429    -1.3698 C1            1 Compound
     106 C1          -8.8333     3.5726    -1.3306 C1            1 Compound
     107 C0          -8.8036     2.0883    -0.9954 C0            1 Compound
     108 C0          -8.2728     1.8881     0.4534 C0            1 Compound
     109 C0          -8.3554     0.4420     0.9975 C0            1 Compound
     110 C0          -7.5709    -0.5659     0.1433 C0            1 Compound
     111 C0          -7.6747    -2.0188     0.6414 C0            1 Compound
     112 C0          -6.9872    -2.2671     1.9838 C0            1 Compound
     113 C1          -9.9927     4.2917    -1.3876 C1            1 Compound
     114 C1          -9.6948     5.6466    -1.2241 C1            1 Compound
     115 S2          -8.1330     6.0082    -1.5258 S2            1 Compound
     116 C1         -10.1441     6.2157     0.0300 C1            1 Compound
     117 C1          -9.7346     7.3675     0.7245 C1            1 Compound
     118 C0          -8.7803     8.4508     0.2341 C0            1 Compound
     119 C0          -7.5112     8.4354     1.0996 C0            1 Compound
     120 C0          -6.3476     9.3028     0.5798 C0            1 Compound
     121 C0          -5.6601     8.7004    -0.6626 C0            1 Compound
     122 C0          -4.3298     9.3974    -0.9767 C0            1 Compound
     123 C0          -3.5956     8.6941    -2.1189 C0            1 Compound
     124 C1         -10.3665     7.4491     1.9734 C1            1 Compound
     125 C1         -11.3035     6.4220     2.1890 C1            1 Compound
     126 S2         -11.0771     5.3046     1.0428 S2            1 Compound
     127 C1         -12.6998     6.8286     2.2854 C1            1 Compound
     128 C1         -13.8255     6.1256     1.7662 C1            1 Compound
     129 C0         -13.9860     4.5973     1.6070 C0            1 Compound
     130 C0         -13.8982     3.9431     0.1849 C0            1 Compound
     131 C0         -13.9616     2.3815     0.2894 C0            1 Compound
     132 C0         -12.8880     1.6325    -0.5406 C0            1 Compound
     133 C0         -12.9683     0.1040    -0.3272 C0            1 Compound
     134 C0         -11.8177    -0.6531    -1.0001 C0            1 Compound
     135 C1         -14.7986     7.0393     1.3431 C1            1 Compound
     136 C1         -14.4432     8.3946     1.5356 C1            1 Compound
     137 S2         -13.0113     8.4522     2.2785 S2            1 Compound
     138 C1         -15.2049     9.5658     1.1156 C1            1 Compound
     139 C1         -15.0529    10.9916     1.1541 C1            1 Compound
     140 C1         -16.2384    11.6194     0.6721 C1            1 Compound
     141 C1         -17.2263    10.7378     0.2358 C1            1 Compound
     142 S2         -16.6706     9.2214     0.4729 S2            1 Compound
     143 C1         -18.6024    10.9953    -0.2100 C1            1 Compound
     144 C1         -19.5012    10.0701    -0.7888 C1            1 Compound
     145 C1         -20.7905    10.5998    -0.9200 C1            1 Compound
     146 C1         -20.9056    11.9133    -0.4835 C1            1 Compound
     147 S2         -19.4103    12.4389     0.0716 S2            1 Compound
     148 C0         -19.1625     8.6656    -1.2702 C0            1 Compound
     149 C0         -19.6339     7.5515    -0.3180 C0            1 Compound
     150 C0         -18.9992     6.2017    -0.7127 C0            1 Compound
     151 C0         -19.6184     5.0197     0.0471 C0            1 Compound
     152 C0         -18.9054     3.7035    -0.3066 C0            1 Compound
     153 C0         -19.6495     2.4950     0.2580 C0            1 Compound
     154 C0         -13.9480    11.9470     1.6583 C0            1 Compound
     155 C0         -12.5067    11.5450     2.0443 C0            1 Compound
     156 C0         -11.4866    11.1375     0.9361 C0            1 Compound
     157 C0         -10.8872    12.3373     0.1600 C0            1 Compound
     158 C0         -11.7337    12.8671    -1.0072 C0            1 Compound
     159 C0         -11.3521    14.3121    -1.3290 C0            1 Compound
     160 C0          -3.0541     4.8014     0.1539 C0            1 Compound
     161 C0          -1.8798     5.2027    -0.7233 C0            1 Compound
     162 C0          -1.0536     6.4030    -0.2234 C0            1 Compound
     163 C0          -0.4716     6.3159     1.2012 C0            1 Compound
     164 C0           0.4359     7.5312     1.5177 C0            1 Compound
     165 C0           1.7310     7.5757     0.6960 C0            1 Compound
     166 H3          21.3886   -14.6194    -0.3212 H3            1 Compound
     167 H3          20.8395   -14.6518     1.4050 H3            1 Compound
     168 H3          22.3836   -13.8185     0.9586 H3            1 Compound
     169 H3          20.5646   -12.1630     1.3591 H3            1 Compound
     170 H3          21.1202   -12.1412    -0.3622 H3            1 Compound
     171 H3          18.6300   -13.6305     0.7177 H3            1 Compound
     172 H3          19.2094   -13.6273    -1.0004 H3            1 Compound
     173 H3          18.3780   -11.1503     0.6227 H3            1 Compound
     174 H3          18.9803   -11.1551    -1.0753 H3            1 Compound
     175 H3          16.4260   -12.6337    -0.1061 H3            1 Compound
     176 H3          17.1228   -12.6585    -1.7704 H3            1 Compound
     177 H3          16.9909   -10.2065    -1.9114 H3            1 Compound
     178 H3          15.3946   -11.0037    -1.7510 H3            1 Compound
     179 H4          15.3155    -8.3621    -1.4054 H4            1 Compound
     180 H5          16.2967   -11.0624     1.8060 H5            1 Compound
     181 H3          15.6975    -4.5683    -1.6170 H3            1 Compound
     182 H3          16.2663    -6.2322    -1.3233 H3            1 Compound
     183 H3          15.8300    -4.0651     0.8331 H3            1 Compound
     184 H3          16.2837    -5.7237     1.2409 H3            1 Compound
     185 H3          18.2471    -4.2531     1.2535 H3            1 Compound
     186 H3          18.0195    -3.9061    -0.5032 H3            1 Compound
     187 H3          18.4758    -6.6911     0.8150 H3            1 Compound
     188 H3          18.2906    -6.4233    -0.9556 H3            1 Compound
     189 H3          20.2924    -5.0143    -1.0309 H3            1 Compound
     190 H3          20.5583    -5.2818     0.7407 H3            1 Compound
     191 H3          20.4280    -7.4897    -1.4276 H3            1 Compound
     192 H3          20.7091    -7.7549     0.3381 H3            1 Compound
     193 H3          21.9264    -6.8540    -0.6485 H3            1 Compound
     194 H4          13.2246    -4.9598    -2.2589 H4            1 Compound
     195 H3           9.4991    -9.1360    -2.6633 H3            1 Compound
     196 H3           9.2576    -9.5380    -0.9656 H3            1 Compound
     197 H3          11.8901    -9.4166    -0.8004 H3            1 Compound
     198 H3          11.8576    -9.7314    -2.5422 H3            1 Compound
     199 H3          10.5075   -11.8729    -1.8246 H3            1 Compound
     200 H3          10.5393   -11.2238    -0.1390 H3            1 Compound
     201 H3          13.0452   -11.2315    -0.1369 H3            1 Compound
     202 H3          13.0249   -12.0325    -1.7564 H3            1 Compound
     203 H3          11.7438   -13.9564    -0.7137 H3            1 Compound
     204 H3          11.7586   -13.0885     0.8728 H3            1 Compound
     205 H3          14.2461   -13.1348     0.9108 H3            1 Compound
     206 H3          14.2602   -14.0038    -0.6790 H3            1 Compound
     207 H3          13.5558   -14.7951     0.7856 H3            1 Compound
     208 H4           9.0272    -7.9989     0.6785 H4            1 Compound
     209 H3          10.9656    -2.8688     2.9700 H3            1 Compound
     210 H3           9.7545    -2.0704     1.9122 H3            1 Compound
     211 H3          11.9311    -4.0015     0.9303 H3            1 Compound
     212 H3          10.8515    -2.8811    -0.0627 H3            1 Compound
     213 H3          11.9037    -0.9254     1.0007 H3            1 Compound
     214 H3          12.9542    -2.0236     1.9754 H3            1 Compound
     215 H3          13.9273    -2.9563    -0.1778 H3            1 Compound
     216 H3          12.8544    -1.8518    -1.1041 H3            1 Compound
     217 H3          13.9680     0.1346    -0.0526 H3            1 Compound
     218 H3          15.0782    -0.8914    -1.0316 H3            1 Compound
     219 H3          14.9241    -0.9528     2.0543 H3            1 Compound
     220 H3          16.0249    -1.9206     1.0014 H3            1 Compound
     221 H3          16.1763    -0.1452     1.0518 H3            1 Compound
     222 H4           8.5882    -3.1161     3.8980 H4            1 Compound
     223 H3           6.7582    -5.7340     0.3138 H3            1 Compound
     224 H3           5.0912    -5.2884    -0.0530 H3            1 Compound
     225 H3           4.2846    -6.8548     1.7900 H3            1 Compound
     226 H3           5.9188    -7.4380     1.9884 H3            1 Compound
     227 H3           4.1849    -7.9175    -0.5440 H3            1 Compound
     228 H3           4.6726    -9.0011     0.7674 H3            1 Compound
     229 H3           6.2600    -7.8288    -1.5603 H3            1 Compound
     230 H3           7.1303    -8.3480    -0.0953 H3            1 Compound
     231 H3           5.2801   -10.2723    -1.5966 H3            1 Compound
     232 H3           7.0499   -10.1205    -1.8689 H3            1 Compound
     233 H3           5.8109   -10.8744     0.8569 H3            1 Compound
     234 H3           7.5571   -10.6364     0.4963 H3            1 Compound
     235 H3           6.6467   -11.9677    -0.2947 H3            1 Compound
     236 H4           4.6093    -3.1370     0.7120 H4            1 Compound
     237 H3           6.6352    -0.1530     1.4146 H3            1 Compound
     238 H3           5.6763     1.1041     0.5907 H3            1 Compound
     239 H3           5.4365    -0.3686    -1.4141 H3            1 Compound
     240 H3           6.4799    -1.6107    -0.6246 H3            1 Compound
     241 H3           7.2578     1.3267    -1.2818 H3            1 Compound
     242 H3           7.7650    -0.1076    -2.2269 H3            1 Compound
     243 H3           9.0939    -0.9515    -0.2770 H3            1 Compound
     244 H3           8.5146     0.4191     0.7299 H3            1 Compound
     245 H3           9.5994     2.0905    -0.6692 H3            1 Compound
     246 H3          10.7186     0.9245     0.1066 H3            1 Compound
     247 H3           9.8708     0.8629    -2.8495 H3            1 Compound
     248 H3          10.9565    -0.3362    -2.0211 H3            1 Compound
     249 H3          11.4522     1.3909    -2.1672 H3            1 Compound
     250 H4           3.0204    -0.1098    -0.1141 H4            1 Compound
     251 H3           0.6193    -3.1631    -1.0832 H3            1 Compound
     252 H3           2.0636    -2.2807    -0.5869 H3            1 Compound
     253 H3           2.4739    -4.5172    -0.9786 H3            1 Compound
     254 H3           2.7205    -4.2670     0.7873 H3            1 Compound
     255 H3           0.6855    -5.3950     1.3412 H3            1 Compound
     256 H3           0.0975    -5.4209    -0.3754 H3            1 Compound
     257 H3           2.7154    -6.7096     0.3921 H3            1 Compound
     258 H3           1.8557    -6.7997    -1.1671 H3            1 Compound
     259 H3           1.6210    -8.9001    -0.0511 H3            1 Compound
     260 H3           0.0090    -8.0961     0.0565 H3            1 Compound
     261 H3           0.6268    -7.4082     2.4511 H3            1 Compound
     262 H3           2.2324    -8.2082     2.2296 H3            1 Compound
     263 H3           0.7301    -9.1950     2.2153 H3            1 Compound
     264 H4          -1.3070    -2.3187     1.6720 H4            1 Compound
     265 H3           1.6819     1.4978     0.5861 H3            1 Compound
     266 H3           0.2088     2.4835     0.4479 H3            1 Compound
     267 H3           1.1401     3.6736    -1.4630 H3            1 Compound
     268 H3           2.6138     2.6334    -1.5174 H3            1 Compound
     269 H3           2.8265     4.9779    -0.3558 H3            1 Compound
     270 H3           1.7967     4.2661     0.9263 H3            1 Compound
     271 H3           3.8576     3.9617     1.8665 H3            1 Compound
     272 H3           3.6937     2.3895     1.0519 H3            1 Compound
     273 H3           5.9558     3.4009     0.7734 H3            1 Compound
     274 H3           5.2536     4.9495     0.2165 H3            1 Compound
     275 H3           4.5012     3.9364    -1.8976 H3            1 Compound
     276 H3           5.1068     2.3137    -1.3708 H3            1 Compound
     277 H3           6.2565     3.6835    -1.6466 H3            1 Compound
     278 H4           0.8990     1.8452    -2.9820 H4            1 Compound
     279 H3          -2.6192    -2.0884    -3.2409 H3            1 Compound
     280 H3          -4.3183    -1.6242    -3.4963 H3            1 Compound
     281 H3          -4.6872    -1.2909    -1.0256 H3            1 Compound
     282 H3          -2.9704    -1.5107    -0.7136 H3            1 Compound
     283 H3          -4.9534    -3.7031    -1.5267 H3            1 Compound
     284 H3          -4.2269    -3.3273     0.0688 H3            1 Compound
     285 H3          -1.8914    -3.7222    -1.0218 H3            1 Compound
     286 H3          -2.7858    -4.3129    -2.4577 H3            1 Compound
     287 H3          -2.0551    -6.1922    -1.1160 H3            1 Compound
     288 H3          -3.8454    -6.1051    -0.9600 H3            1 Compound
     289 H3          -3.5437    -5.0230     1.3268 H3            1 Compound
     290 H3          -1.7619    -5.0284     1.0821 H3            1 Compound
     291 H3          -2.6574    -6.5798     1.2213 H3            1 Compound
     292 H4          -4.9436     0.5508    -2.1079 H4            1 Compound
     293 H4          -5.6956     5.6344     0.1616 H4            1 Compound
     294 H3          -9.8330     1.6902    -1.0334 H3            1 Compound
     295 H3          -8.2075     1.5281    -1.7380 H3            1 Compound
     296 H3          -7.2156     2.2212     0.5248 H3            1 Compound
     297 H3          -8.8702     2.5190     1.1476 H3            1 Compound
     298 H3          -9.4181     0.1346     1.0631 H3            1 Compound
     299 H3          -7.9502     0.4444     2.0336 H3            1 Compound
     300 H3          -7.9939    -0.5555    -0.8812 H3            1 Compound
     301 H3          -6.5046    -0.2611     0.0916 H3            1 Compound
     302 H3          -7.1785    -2.6708    -0.1096 H3            1 Compound
     303 H3          -8.7435    -2.3196     0.7064 H3            1 Compound
     304 H3          -7.4631    -1.6843     2.7978 H3            1 Compound
     305 H3          -5.9098    -2.0050     1.9175 H3            1 Compound
     306 H3          -7.0682    -3.3459     2.2396 H3            1 Compound
     307 H4         -10.9269     3.8072    -1.1615 H4            1 Compound
     308 H3          -9.2639     9.4428     0.2662 H3            1 Compound
     309 H3          -8.5204     8.3338    -0.8250 H3            1 Compound
     310 H3          -7.1322     7.3936     1.1985 H3            1 Compound
     311 H3          -7.7990     8.7849     2.1137 H3            1 Compound
     312 H3          -6.6761    10.3473     0.3918 H3            1 Compound
     313 H3          -5.5913     9.3155     1.3944 H3            1 Compound
     314 H3          -6.3322     8.7269    -1.5463 H3            1 Compound
     315 H3          -5.4100     7.6506    -0.4438 H3            1 Compound
     316 H3          -3.6753     9.3538    -0.0776 H3            1 Compound
     317 H3          -4.5050    10.4609    -1.2418 H3            1 Compound
     318 H3          -4.1903     8.7360    -3.0542 H3            1 Compound
     319 H3          -3.4149     7.6294    -1.8616 H3            1 Compound
     320 H3          -2.6127     9.1824    -2.2909 H3            1 Compound
     321 H4         -10.3029     8.3596     2.5520 H4            1 Compound
     322 H3         -13.1927     4.1231     2.2191 H3            1 Compound
     323 H3         -14.9512     4.3062     2.0685 H3            1 Compound
     324 H3         -12.9441     4.2118    -0.2837 H3            1 Compound
     325 H3         -14.6672     4.3133    -0.5255 H3            1 Compound
     326 H3         -13.7601     2.0762     1.3380 H3            1 Compound
     327 H3         -14.9868     2.0331     0.0384 H3            1 Compound
     328 H3         -12.9761     1.8660    -1.6238 H3            1 Compound
     329 H3         -11.8980     1.9711    -0.1745 H3            1 Compound
     330 H3         -13.9304    -0.2772    -0.7296 H3            1 Compound
     331 H3         -12.9222    -0.1235     0.7605 H3            1 Compound
     332 H3         -11.8051    -0.4819    -2.0956 H3            1 Compound
     333 H3         -10.8451    -0.3401    -0.5797 H3            1 Compound
     334 H3         -11.9224    -1.7436    -0.8090 H3            1 Compound
     335 H4         -15.7117     6.7107     0.8655 H4            1 Compound
     336 H4         -16.3654    12.6945     0.6538 H4            1 Compound
     337 H4         -21.6194    10.0418    -1.3326 H4            1 Compound
     338 H5         -21.8096    12.5031    -0.4979 H5            1 Compound
     339 H3         -18.0822     8.5734    -1.4568 H3            1 Compound
     340 H3         -19.5851     8.5088    -2.2851 H3            1 Compound
     341 H3         -20.7422     7.5042    -0.3566 H3            1 Compound
     342 H3         -19.3224     7.7725     0.7275 H3            1 Compound
     343 H3         -17.9044     6.2511    -0.5112 H3            1 Compound
     344 H3         -19.1477     6.0201    -1.7990 H3            1 Compound
     345 H3         -20.6880     4.9535    -0.2491 H3            1 Compound
     346 H3         -19.5600     5.1789     1.1465 H3            1 Compound
     347 H3         -17.8681     3.7248     0.0972 H3            1 Compound
     348 H3         -18.8522     3.5813    -1.4098 H3            1 Compound
     349 H3         -20.6652     2.4361    -0.1902 H3            1 Compound
     350 H3         -19.7409     2.5636     1.3619 H3            1 Compound
     351 H3         -19.1016     1.5638    -0.0010 H3            1 Compound
     352 H3         -13.8714    12.7934     0.9610 H3            1 Compound
     353 H3         -14.3809    12.4061     2.5712 H3            1 Compound
     354 H3         -12.5560    10.8036     2.8477 H3            1 Compound
     355 H3         -12.0460    12.4102     2.5687 H3            1 Compound
     356 H3         -11.8326    10.3193     0.2680 H3            1 Compound
     357 H3         -10.6242    10.7416     1.5151 H3            1 Compound
     358 H3          -9.8990    12.0576    -0.2749 H3            1 Compound
     359 H3         -10.6799    13.1365     0.9042 H3            1 Compound
     360 H3         -11.5936    12.2089    -1.8930 H3            1 Compound
     361 H3         -12.8051    12.8740    -0.7839 H3            1 Compound
     362 H3         -11.5669    14.9507    -0.4420 H3            1 Compound
     363 H3         -10.2763    14.4035    -1.5843 H3            1 Compound
     364 H3         -11.9670    14.6867    -2.1735 H3            1 Compound
     365 H3          -2.7062     4.1095     0.9590 H3            1 Compound
     366 H3          -3.4314     5.7146     0.6789 H3            1 Compound
     367 H3          -1.2330     4.3139    -0.8615 H3            1 Compound
     368 H3          -2.2649     5.5184    -1.7204 H3            1 Compound
     369 H3          -0.2398     6.5216    -0.9601 H3            1 Compound
     370 H3          -1.6866     7.3160    -0.2514 H3            1 Compound
     371 H3          -1.3100     6.3109     1.9311 H3            1 Compound
     372 H3           0.0859     5.3814     1.3492 H3            1 Compound
     373 H3           0.7317     7.4952     2.5884 H3            1 Compound
     374 H3          -0.1336     8.4703     1.3489 H3            1 Compound
     375 H3           1.5435     7.6103    -0.3957 H3            1 Compound
     376 H3           2.3583     6.6993     0.9395 H3            1 Compound
     377 H3           2.3144     8.4825     0.9571 H3            1 Compound
@<TRIPOS>BOND
       1        2        1 1
       2      166        1 1
       3      167        1 1
       4      168        1 1
       5        3        2 1
       6      169        2 1
       7      170        2 1
       8        4        3 1
       9      171        3 1
      10      172        3 1
      11        5        4 1
      12      173        4 1
      13      174        4 1
      14        6        5 1
      15      175        5 1
      16      176        5 1
      17        7        6 1
      18      177        6 1
      19      178        6 1
      20        8        7 1
      21       11        7 1
      22        9        8 1
      23      179        8 1
      24       10        9 1
      25       12        9 1
      26       11       10 1
      27      180       11 1
      28       13       12 1
      29       22       12 1
      30       14       13 1
      31       20       13 1
      32       15       14 1
      33      181       14 1
      34      182       14 1
      35       16       15 1
      36      183       15 1
      37      184       15 1
      38       17       16 1
      39      185       16 1
      40      186       16 1
      41       18       17 1
      42      187       17 1
      43      188       17 1
      44       19       18 1
      45      189       18 1
      46      190       18 1
      47      191       19 1
      48      192       19 1
      49      193       19 1
      50       21       20 1
      51      194       20 1
      52       22       21 1
      53       23       21 1
      54       24       23 1
      55       33       23 1
      56       25       24 1
      57       31       24 1
      58       26       25 1
      59      195       25 1
      60      196       25 1
      61       27       26 1
      62      197       26 1
      63      198       26 1
      64       28       27 1
      65      199       27 1
      66      200       27 1
      67       29       28 1
      68      201       28 1
      69      202       28 1
      70       30       29 1
      71      203       29 1
      72      204       29 1
      73      205       30 1
      74      206       30 1
      75      207       30 1
      76       32       31 1
      77      208       31 1
      78       33       32 1
      79       34       32 1
      80       35       34 1
      81       44       34 1
      82       36       35 1
      83       42       35 1
      84       37       36 1
      85      209       36 1
      86      210       36 1
      87       38       37 1
      88      211       37 1
      89      212       37 1
      90       39       38 1
      91      213       38 1
      92      214       38 1
      93       40       39 1
      94      215       39 1
      95      216       39 1
      96       41       40 1
      97      217       40 1
      98      218       40 1
      99      219       41 1
     100      220       41 1
     101      221       41 1
     102       43       42 1
     103      222       42 1
     104       44       43 1
     105       45       43 1
     106       46       45 1
     107       55       45 1
     108       47       46 1
     109       53       46 1
     110       48       47 1
     111      223       47 1
     112      224       47 1
     113       49       48 1
     114      225       48 1
     115      226       48 1
     116       50       49 1
     117      227       49 1
     118      228       49 1
     119       51       50 1
     120      229       50 1
     121      230       50 1
     122       52       51 1
     123      231       51 1
     124      232       51 1
     125      233       52 1
     126      234       52 1
     127      235       52 1
     128       54       53 1
     129      236       53 1
     130       55       54 1
     131       56       54 1
     132       57       56 1
     133       66       56 1
     134       58       57 1
     135       64       57 1
     136       59       58 1
     137      237       58 1
     138      238       58 1
     139       60       59 1
     140      239       59 1
     141      240       59 1
     142       61       60 1
     143      241       60 1
     144      242       60 1
     145       62       61 1
     146      243       61 1
     147      244       61 1
     148       63       62 1
     149      245       62 1
     150      246       62 1
     151      247       63 1
     152      248       63 1
     153      249       63 1
     154       65       64 1
     155      250       64 1
     156       66       65 1
     157       67       65 1
     158       68       67 1
     159       77       67 1
     160       69       68 1
     161       75       68 1
     162       70       69 1
     163      251       69 1
     164      252       69 1
     165       71       70 1
     166      253       70 1
     167      254       70 1
     168       72       71 1
     169      255       71 1
     170      256       71 1
     171       73       72 1
     172      257       72 1
     173      258       72 1
     174       74       73 1
     175      259       73 1
     176      260       73 1
     177      261       74 1
     178      262       74 1
     179      263       74 1
     180       76       75 1
     181      264       75 1
     182       77       76 1
     183       78       76 1
     184       79       78 1
     185       88       78 1
     186       80       79 1
     187       86       79 1
     188       81       80 1
     189      265       80 1
     190      266       80 1
     191       82       81 1
     192      267       81 1
     193      268       81 1
     194       83       82 1
     195      269       82 1
     196      270       82 1
     197       84       83 1
     198      271       83 1
     199      272       83 1
     200       85       84 1
     201      273       84 1
     202      274       84 1
     203      275       85 1
     204      276       85 1
     205      277       85 1
     206       87       86 1
     207      278       86 1
     208       88       87 1
     209       89       87 1
     210       90       89 1
     211       99       89 1
     212       91       90 1
     213       97       90 1
     214       92       91 1
     215      279       91 1
     216      280       91 1
     217       93       92 1
     218      281       92 1
     219      282       92 1
     220       94       93 1
     221      283       93 1
     222      284       93 1
     223       95       94 1
     224      285       94 1
     225      286       94 1
     226       96       95 1
     227      287       95 1
     228      288       95 1
     229      289       96 1
     230      290       96 1
     231      291       96 1
     232       98       97 1
     233      292       97 1
     234       99       98 1
     235      100       98 1
     236      101      100 1
     237      104      100 1
     238      102      101 1
     239      160      101 1
     240      103      102 1
     241      293      102 1
     242      104      103 1
     243      105      103 1
     244      106      105 1
     245      115      105 1
     246      107      106 1
     247      113      106 1
     248      108      107 1
     249      294      107 1
     250      295      107 1
     251      109      108 1
     252      296      108 1
     253      297      108 1
     254      110      109 1
     255      298      109 1
     256      299      109 1
     257      111      110 1
     258      300      110 1
     259      301      110 1
     260      112      111 1
     261      302      111 1
     262      303      111 1
     263      304      112 1
     264      305      112 1
     265      306      112 1
     266      114      113 1
     267      307      113 1
     268      115      114 1
     269      116      114 1
     270      117      116 1
     271      126      116 1
     272      118      117 1
     273      124      117 1
     274      119      118 1
     275      308      118 1
     276      309      118 1
     277      120      119 1
     278      310      119 1
     279      311      119 1
     280      121      120 1
     281      312      120 1
     282      313      120 1
     283      122      121 1
     284      314      121 1
     285      315      121 1
     286      123      122 1
     287      316      122 1
     288      317      122 1
     289      318      123 1
     290      319      123 1
     291      320      123 1
     292      125      124 1
     293      321      124 1
     294      126      125 1
     295      127      125 1
     296      128      127 1
     297      137      127 1
     298      129      128 1
     299      135      128 1
     300      130      129 1
     301      322      129 1
     302      323      129 1
     303      131      130 1
     304      324      130 1
     305      325      130 1
     306      132      131 1
     307      326      131 1
     308      327      131 1
     309      133      132 1
     310      328      132 1
     311      329      132 1
     312      134      133 1
     313      330      133 1
     314      331      133 1
     315      332      134 1
     316      333      134 1
     317      334      134 1
     318      136      135 1
     319      335      135 1
     320      137      136 1
     321      138      136 1
     322      139      138 1
     323      142      138 1
     324      140      139 1
     325      154      139 1
     326      141      140 1
     327      336      140 1
     328      142      141 1
     329      143      141 1
     330      144      143 1
     331      147      143 1
     332      145      144 1
     333      148      144 1
     334      146      145 1
     335      337      145 1
     336      147      146 1
     337      338      146 1
     338      149      148 1
     339      339      148 1
     340      340      148 1
     341      150      149 1
     342      341      149 1
     343      342      149 1
     344      151      150 1
     345      343      150 1
     346      344      150 1
     347      152      151 1
     348      345      151 1
     349      346      151 1
     350      153      152 1
     351      347      152 1
     352      348      152 1
     353      349      153 1
     354      350      153 1
     355      351      153 1
     356      155      154 1
     357      352      154 1
     358      353      154 1
     359      156      155 1
     360      354      155 1
     361      355      155 1
     362      157      156 1
     363      356      156 1
     364      357      156 1
     365      158      157 1
     366      358      157 1
     367      359      157 1
     368      159      158 1
     369      360      158 1
     370      361      158 1
     371      362      159 1
     372      363      159 1
     373      364      159 1
     374      161      160 1
     375      365      160 1
     376      366      160 1
     377      162      161 1
     378      367      161 1
     379      368      161 1
     380      163      162 1
     381      369      162 1
     382      370      162 1
     383      164      163 1
     384      371      163 1
     385      372      163 1
     386      165      164 1
     387      373      164 1
     388      374      164 1
     389      375      165 1
     390      376      165 1
     391      377      165 1
@<TRIPOS>SUBSTRUCTURE
       1 Compound        1 RESIDUE    0 **** ROOT      0
