@<TRIPOS>MOLECULE
Polymer
377 391 1 0 1
SMALL
NO_CHARGES
@<TRIPOS>CRYSIN
   29.3189    46.5628    38.5814    90.0000    90.0000    90.0000  1  1
@<TRIPOS>ATOM
       1 C0           9.6709     1.3498     1.3809 C0            1 Polymer 
       2 C0           8.6888     2.0998     2.2860 C0            1 Polymer 
       3 C0           7.2287     1.7856     1.9464 C0            1 Polymer 
       4 C0           6.2343     2.6170     2.7865 C0            1 Polymer 
       5 C0           4.7871     2.3923     2.3147 C0            1 Polymer 
       6 C0           3.7551     3.3571     2.9448 C0            1 Polymer 
       7 C1           2.4487     3.2953     2.1851 C1            1 Polymer 
       8 C1           1.9715     4.3623     1.3158 C1            1 Polymer 
       9 S2           0.3772     4.0278     0.5928 S2            1 Polymer 
      10 C1           0.5397     2.2926     1.1393 C1            1 Polymer 
      11 C1           1.6380     2.2511     2.1701 C1            1 Polymer 
      12 H3          10.7117     1.6335     1.6339 H3            1 Polymer 
      13 H3           9.4976     1.6078     0.3130 H3            1 Polymer 
      14 H3           9.5826     0.2550     1.5205 H3            1 Polymer 
      15 H3           8.8612     3.1865     2.1432 H3            1 Polymer 
      16 H3           8.8900     1.8279     3.3428 H3            1 Polymer 
      17 H3           7.0466     0.7044     2.1102 H3            1 Polymer 
      18 H3           7.0754     2.0336     0.8720 H3            1 Polymer 
      19 H3           6.4804     3.6879     2.6372 H3            1 Polymer 
      20 H3           6.3263     2.3592     3.8621 H3            1 Polymer 
      21 H3           4.7821     2.5903     1.2162 H3            1 Polymer 
      22 H3           4.5077     1.3413     2.5164 H3            1 Polymer 
      23 H3           3.6076     3.1443     4.0245 H3            1 Polymer 
      24 H3           4.1509     4.3864     2.8323 H3            1 Polymer 
      25 H5           1.8369     1.3647     2.7548 H5            1 Polymer 
      26 C0           8.7902    -1.5969    -1.1375 C0            1 Polymer 
      27 C0           7.7752    -0.8976    -0.2335 C0            1 Polymer 
      28 C0           6.3341    -1.3073    -0.4991 C0            1 Polymer 
      29 C0           5.3398    -0.5450     0.3971 C0            1 Polymer 
      30 C0           3.8879    -0.8257     0.0251 C0            1 Polymer 
      31 C0           2.8640    -0.0298     0.8514 C0            1 Polymer 
      32 C1           1.4427     0.0947     0.2782 C1            1 Polymer 
      33 C1           0.8868     1.4361    -0.1162 C1            1 Polymer 
      34 S2          -0.6689     1.1468    -1.0336 S2            1 Polymer 
      35 C1          -0.5325    -0.6502    -0.8364 C1            1 Polymer 
      36 C1           0.6383    -0.9084     0.0776 C1            1 Polymer 
      37 H3           9.8099    -1.2306    -0.9042 H3            1 Polymer 
      38 H3           8.5865    -1.3682    -2.2056 H3            1 Polymer 
      39 H3           8.7787    -2.6943    -0.9713 H3            1 Polymer 
      40 H3           7.8577     0.1891    -0.4246 H3            1 Polymer 
      41 H3           8.0135    -1.1399     0.8199 H3            1 Polymer 
      42 H3           6.2372    -2.3962    -0.3066 H3            1 Polymer 
      43 H3           6.1189    -1.0622    -1.5612 H3            1 Polymer 
      44 H3           5.5022     0.5347     0.2310 H3            1 Polymer 
      45 H3           5.5069    -0.8176     1.4588 H3            1 Polymer 
      46 H3           3.8094    -0.5026    -1.0300 H3            1 Polymer 
      47 H3           3.7311    -1.9025     0.1898 H3            1 Polymer 
      48 H3           2.8534    -0.4234     1.8884 H3            1 Polymer 
      49 H3           3.2502     0.9903     0.7953 H3            1 Polymer 
      50 H5           0.8904    -1.9103     0.3921 H5            1 Polymer 
      51 C0           7.8529    -4.1402    -4.0137 C0            1 Polymer 
      52 C0           6.8344    -3.2663    -3.2868 C0            1 Polymer 
      53 C0           5.3936    -3.7252    -3.4498 C0            1 Polymer 
      54 C0           4.4160    -2.8257    -2.6960 C0            1 Polymer 
      55 C0           2.9531    -3.2218    -2.8382 C0            1 Polymer 
      56 C0           2.0672    -2.3549    -1.9529 C0            1 Polymer 
      57 C1           0.5818    -2.4720    -2.1076 C1            1 Polymer 
      58 C1          -0.2826    -1.2664    -2.2671 C1            1 Polymer 
      59 S2          -1.8791    -1.8744    -2.8641 S2            1 Polymer 
      60 C1          -1.4095    -3.5948    -2.4445 C1            1 Polymer 
      61 C1          -0.0780    -3.5500    -1.8352 C1            1 Polymer 
      62 H3           8.8698    -3.7266    -3.8561 H3            1 Polymer 
      63 H3           7.6404    -4.1647    -5.1036 H3            1 Polymer 
      64 H3           7.8553    -5.1693    -3.6002 H3            1 Polymer 
      65 H3           6.9254    -2.2279    -3.6656 H3            1 Polymer 
      66 H3           7.0713    -3.3192    -2.2136 H3            1 Polymer 
      67 H3           5.3323    -4.7286    -2.9909 H3            1 Polymer 
      68 H3           5.1285    -3.7430    -4.5333 H3            1 Polymer 
      69 H3           4.5297    -1.7808    -3.0493 H3            1 Polymer 
      70 H3           4.6539    -2.9275    -1.6289 H3            1 Polymer 
      71 H3           2.6513    -3.1445    -3.9061 H3            1 Polymer 
      72 H3           2.8861    -4.2377    -2.4202 H3            1 Polymer 
      73 H3           2.2916    -2.6942    -0.9394 H3            1 Polymer 
      74 H3           2.2907    -1.3009    -2.1800 H3            1 Polymer 
      75 H5           0.3994    -4.4068    -1.4402 H5            1 Polymer 
      76 C0           6.8769    -7.8997    -5.0041 C0            1 Polymer 
      77 C0           5.9228    -7.0108    -4.2010 C0            1 Polymer 
      78 C0           4.4515    -7.3792    -4.3723 C0            1 Polymer 
      79 C0           3.4511    -6.4934    -3.5914 C0            1 Polymer 
      80 C0           1.9685    -6.7771    -3.9105 C0            1 Polymer 
      81 C0           0.9069    -5.9400    -3.1462 C0            1 Polymer 
      82 C1          -0.5907    -5.7465    -3.5467 C1            1 Polymer 
      83 C1          -1.2270    -4.3694    -3.7865 C1            1 Polymer 
      84 S2          -2.9226    -4.5776    -4.4097 S2            1 Polymer 
      85 C1          -2.6739    -6.3426    -4.5031 C1            1 Polymer 
      86 C1          -1.4748    -6.7073    -3.6576 C1            1 Polymer 
      87 H3           7.9224    -7.5667    -4.8297 H3            1 Polymer 
      88 H3           6.6974    -7.8115    -6.0921 H3            1 Polymer 
      89 H3           6.7801    -8.9620    -4.7035 H3            1 Polymer 
      90 H3           6.0539    -5.9952    -4.6076 H3            1 Polymer 
      91 H3           6.1991    -7.0618    -3.1287 H3            1 Polymer 
      92 H3           4.2980    -8.4467    -4.1068 H3            1 Polymer 
      93 H3           4.2763    -7.1882    -5.4296 H3            1 Polymer 
      94 H3           3.6159    -5.4777    -3.9657 H3            1 Polymer 
      95 H3           3.6389    -6.5908    -2.5039 H3            1 Polymer 
      96 H3           1.9059    -6.4775    -4.9666 H3            1 Polymer 
      97 H3           1.8005    -7.8529    -3.6934 H3            1 Polymer 
      98 H3           0.9818    -6.2807    -2.0930 H3            1 Polymer 
      99 H3           1.2595    -4.9426    -3.3549 H3            1 Polymer 
     100 H5          -1.2319    -7.7393    -3.4455 H5            1 Polymer 
     101 C0           5.3608    -8.3258    -9.1777 C0            1 Polymer 
     102 C0           4.6234    -8.1593    -7.8543 C0            1 Polymer 
     103 C0           3.0845    -8.0888    -7.9904 C0            1 Polymer 
     104 C0           2.3663    -8.6148    -6.7244 C0            1 Polymer 
     105 C0           0.8305    -8.6341    -6.8062 C0            1 Polymer 
     106 C0          -0.0022    -7.6733    -5.9740 C0            1 Polymer 
     107 C1          -1.4940    -7.8050    -6.0998 C1            1 Polymer 
     108 C1          -2.3837    -6.6182    -6.0236 C1            1 Polymer 
     109 S2          -3.9659    -7.1041    -6.7249 S2            1 Polymer 
     110 C1          -3.5008    -8.8532    -6.4860 C1            1 Polymer 
     111 C1          -2.1816    -8.8894    -5.8266 C1            1 Polymer 
     112 H3           6.4560    -8.3382    -8.9799 H3            1 Polymer 
     113 H3           5.1253    -7.4954    -9.8705 H3            1 Polymer 
     114 H3           5.0955    -9.2957    -9.6509 H3            1 Polymer 
     115 H3           4.9834    -7.2282    -7.3866 H3            1 Polymer 
     116 H3           4.9255    -9.0291    -7.2222 H3            1 Polymer 
     117 H3           2.7742    -8.7673    -8.8138 H3            1 Polymer 
     118 H3           2.7775    -7.0584    -8.2601 H3            1 Polymer 
     119 H3           2.6317    -8.2586    -5.7697 H3            1 Polymer 
     120 H3           2.7464    -9.6493    -6.6002 H3            1 Polymer 
     121 H3           0.5154    -8.5969    -7.8730 H3            1 Polymer 
     122 H3           0.6105    -9.5824    -6.2756 H3            1 Polymer 
     123 H3           0.2038    -7.9908    -4.9583 H3            1 Polymer 
     124 H3           0.2522    -6.6258    -6.2213 H3            1 Polymer 
     125 H5          -1.7332    -9.7837    -5.4970 H5            1 Polymer 
     126 C0           4.9749   -12.5234    -8.8559 C0            1 Polymer 
     127 C0           3.8589   -11.8698    -8.0405 C0            1 Polymer 
     128 C0           2.4563   -12.2881    -8.5051 C0            1 Polymer 
     129 C0           1.3429   -11.5978    -7.7159 C0            1 Polymer 
     130 C0          -0.1040   -11.8419    -8.1745 C0            1 Polymer 
     131 C0          -1.2132   -11.1374    -7.3525 C0            1 Polymer 
     132 C1          -2.6628   -10.8473    -7.8046 C1            1 Polymer 
     133 C1          -3.2471    -9.4328    -7.9079 C1            1 Polymer 
     134 S2          -4.8654    -9.4897    -8.7166 S2            1 Polymer 
     135 C1          -4.6981   -11.2617    -8.9242 C1            1 Polymer 
     136 C1          -3.5412   -11.7579    -8.0929 C1            1 Polymer 
     137 H3           5.9611   -12.1678    -8.4897 H3            1 Polymer 
     138 H3           4.8996   -12.2407    -9.9277 H3            1 Polymer 
     139 H3           4.9321   -13.6280    -8.7558 H3            1 Polymer 
     140 H3           3.9592   -10.7842    -8.1806 H3            1 Polymer 
     141 H3           3.9955   -12.1171    -6.9687 H3            1 Polymer 
     142 H3           2.3414   -13.3892    -8.4202 H3            1 Polymer 
     143 H3           2.3807   -11.9237    -9.5477 H3            1 Polymer 
     144 H3           1.5239   -10.5712    -7.9913 H3            1 Polymer 
     145 H3           1.4538   -11.8183    -6.6357 H3            1 Polymer 
     146 H3          -0.1134   -11.3674    -9.1756 H3            1 Polymer 
     147 H3          -0.2892   -12.9386    -8.1484 H3            1 Polymer 
     148 H3          -1.2033   -11.5979    -6.3561 H3            1 Polymer 
     149 H3          -0.8838   -10.1329    -7.4421 H3            1 Polymer 
     150 H5          -3.2867   -12.8061    -7.9865 H5            1 Polymer 
     151 C0           3.9647   -14.4673   -12.2927 C0            1 Polymer 
     152 C0           2.9436   -13.5193   -11.6702 C0            1 Polymer 
     153 C0           1.4697   -13.9260   -11.8608 C0            1 Polymer 
     154 C0           0.4831   -12.9273   -11.2458 C0            1 Polymer 
     155 C0          -1.0093   -13.2916   -11.3639 C0            1 Polymer 
     156 C0          -1.9440   -12.3169   -10.6118 C0            1 Polymer 
     157 C1          -3.4162   -12.5534   -10.6479 C1            1 Polymer 
     158 C1          -4.4245   -11.4707   -10.4570 C1            1 Polymer 
     159 S2          -5.9692   -12.1090   -11.0488 S2            1 Polymer 
     160 C1          -5.3486   -13.7917   -10.6555 C1            1 Polymer 
     161 C1          -3.9629   -13.6594   -10.2239 C1            1 Polymer 
     162 H3           4.9862   -14.0708   -12.1039 H3            1 Polymer 
     163 H3           3.8086   -14.5525   -13.3867 H3            1 Polymer 
     164 H3           3.9250   -15.4663   -11.8135 H3            1 Polymer 
     165 H3           3.1054   -12.5021   -12.0820 H3            1 Polymer 
     166 H3           3.1737   -13.5500   -10.6008 H3            1 Polymer 
     167 H3           1.3457   -14.8528   -11.2820 H3            1 Polymer 
     168 H3           1.2466   -14.0471   -12.9407 H3            1 Polymer 
     169 H3           0.6550   -11.9115   -11.6553 H3            1 Polymer 
     170 H3           0.7110   -12.9922   -10.1920 H3            1 Polymer 
     171 H3          -1.3003   -13.3565   -12.4311 H3            1 Polymer 
     172 H3          -1.0967   -14.2367   -10.8196 H3            1 Polymer 
     173 H3          -1.7534   -12.5202    -9.5945 H3            1 Polymer 
     174 H3          -1.7376   -11.2708   -10.8955 H3            1 Polymer 
     175 H5          -3.4090   -14.4695    -9.8068 H5            1 Polymer 
     176 C0           2.8320   -18.1371   -13.1485 C0            1 Polymer 
     177 C0           1.8291   -17.4143   -12.2536 C0            1 Polymer 
     178 C0           0.3518   -17.6562   -12.6095 C0            1 Polymer 
     179 C0          -0.6402   -16.9321   -11.6780 C0            1 Polymer 
     180 C0          -2.1041   -17.0354   -12.1666 C0            1 Polymer 
     181 C0          -3.1399   -16.2297   -11.3453 C0            1 Polymer 
     182 C1          -4.5949   -15.9056   -11.8181 C1            1 Polymer 
     183 C1          -5.1801   -14.5038   -12.0073 C1            1 Polymer 
     184 S2          -6.8688   -14.5849   -12.6673 S2            1 Polymer 
     185 C1          -6.7060   -16.3256   -12.8446 C1            1 Polymer 
     186 C1          -5.4910   -16.8125   -12.0588 C1            1 Polymer 
     187 H3           3.8634   -17.8765   -12.8217 H3            1 Polymer 
     188 H3           2.7405   -17.7977   -14.2007 H3            1 Polymer 
     189 H3           2.7007   -19.2342   -13.0818 H3            1 Polymer 
     190 H3           2.0426   -16.3642   -12.4332 H3            1 Polymer 
     191 H3           2.0234   -17.6812   -11.1947 H3            1 Polymer 
     192 H3           0.1275   -18.7425   -12.5985 H3            1 Polymer 
     193 H3           0.2124   -17.2152   -13.6111 H3            1 Polymer 
     194 H3          -0.3725   -15.8866   -11.7521 H3            1 Polymer 
     195 H3          -0.5339   -17.2852   -10.6322 H3            1 Polymer 
     196 H3          -2.0578   -16.5480   -13.1611 H3            1 Polymer 
     197 H3          -2.3936   -18.1060   -12.1911 H3            1 Polymer 
     198 H3          -3.1555   -16.6370   -10.3106 H3            1 Polymer 
     199 H3          -2.6672   -15.2765   -11.4460 H3            1 Polymer 
     200 H5          -5.2481   -17.8529   -11.9072 H5            1 Polymer 
     201 C0           1.6715   -19.2841   -16.8563 C0            1 Polymer 
     202 C0           0.6587   -18.3948   -16.1558 C0            1 Polymer 
     203 C0          -0.8169   -18.7380   -16.4496 C0            1 Polymer 
     204 C0          -1.7396   -17.8501   -15.5979 C0            1 Polymer 
     205 C0          -3.2543   -18.0752   -15.7786 C0            1 Polymer 
     206 C0          -4.0352   -17.2118   -14.7526 C0            1 Polymer 
     207 C1          -5.4985   -17.4986   -14.6589 C1            1 Polymer 
     208 C1          -6.5742   -16.5184   -14.4017 C1            1 Polymer 
     209 S2          -8.0945   -17.3550   -14.8119 S2            1 Polymer 
     210 C1          -7.3182   -18.9249   -14.2414 C1            1 Polymer 
     211 C1          -5.9043   -18.6316   -14.1834 C1            1 Polymer 
     212 H3           2.6977   -18.9335   -16.6011 H3            1 Polymer 
     213 H3           1.5437   -19.2592   -17.9547 H3            1 Polymer 
     214 H3           1.5825   -20.3179   -16.4789 H3            1 Polymer 
     215 H3           0.8514   -17.3370   -16.4322 H3            1 Polymer 
     216 H3           0.8459   -18.5483   -15.0856 H3            1 Polymer 
     217 H3          -0.9992   -19.7946   -16.1754 H3            1 Polymer 
     218 H3          -1.0253   -18.5987   -17.5269 H3            1 Polymer 
     219 H3          -1.5084   -16.7799   -15.7890 H3            1 Polymer 
     220 H3          -1.5035   -18.1136   -14.5564 H3            1 Polymer 
     221 H3          -3.5649   -17.8262   -16.8114 H3            1 Polymer 
     222 H3          -3.4622   -19.1496   -15.5866 H3            1 Polymer 
     223 H3          -3.6936   -17.5716   -13.8032 H3            1 Polymer 
     224 H3          -3.8398   -16.1265   -14.8724 H3            1 Polymer 
     225 H5          -5.2022   -19.2121   -13.6977 H5            1 Polymer 
     226 C0           0.9166   -23.0081   -16.0157 C0            1 Polymer 
     227 C0          -0.1603   -22.5339   -15.0284 C0            1 Polymer 
     228 C0          -1.5645   -22.6217   -15.6520 C0            1 Polymer 
     229 C0          -2.7056   -22.1961   -14.7028 C0            1 Polymer 
     230 C0          -4.0890   -22.2141   -15.4371 C0            1 Polymer 
     231 C0          -5.2746   -21.6566   -14.6066 C0            1 Polymer 
     232 C1          -6.6768   -21.2562   -15.2435 C1            1 Polymer 
     233 C1          -7.3263   -19.8646   -15.4281 C1            1 Polymer 
     234 S2          -9.0911   -20.0709   -15.8704 S2            1 Polymer 
     235 C1          -8.6779   -21.6276   -16.5628 C1            1 Polymer 
     236 C1          -7.4922   -22.1623   -15.7545 C1            1 Polymer 
     237 H3           1.9225   -22.9333   -15.5510 H3            1 Polymer 
     238 H3           0.9263   -22.3889   -16.9342 H3            1 Polymer 
     239 H3           0.7389   -24.0637   -16.3106 H3            1 Polymer 
     240 H3           0.0610   -21.4820   -14.7399 H3            1 Polymer 
     241 H3          -0.1084   -23.1696   -14.1220 H3            1 Polymer 
     242 H3          -1.7531   -23.6602   -15.9970 H3            1 Polymer 
     243 H3          -1.5669   -21.9391   -16.5196 H3            1 Polymer 
     244 H3          -2.4813   -21.1554   -14.3679 H3            1 Polymer 
     245 H3          -2.7299   -22.8519   -13.8099 H3            1 Polymer 
     246 H3          -3.9157   -21.4864   -16.2520 H3            1 Polymer 
     247 H3          -4.3208   -23.2348   -15.8107 H3            1 Polymer 
     248 H3          -5.4259   -22.2630   -13.6958 H3            1 Polymer 
     249 H3          -4.7108   -20.8317   -14.3326 H3            1 Polymer 
     250 H5          -7.2305   -23.2096   -15.7441 H5            1 Polymer 
     251 C0           0.1693   -23.3806   -20.1851 C0            1 Polymer 
     252 C0          -0.8747   -22.5221   -19.4716 C0            1 Polymer 
     253 C0          -2.3277   -22.8829   -19.8220 C0            1 Polymer 
     254 C0          -3.3218   -22.0480   -19.0055 C0            1 Polymer 
     255 C0          -4.7953   -22.3542   -19.3158 C0            1 Polymer 
     256 C0          -5.7705   -21.6426   -18.3386 C0            1 Polymer 
     257 C1          -7.1967   -22.0979   -18.4913 C1            1 Polymer 
     258 C1          -8.4170   -21.3641   -18.1036 C1            1 Polymer 
     259 S2          -9.7492   -22.2199   -18.9916 S2            1 Polymer 
     260 C1          -8.8741   -23.7905   -18.6507 C1            1 Polymer 
     261 C1          -7.4784   -23.3581   -18.3892 C1            1 Polymer 
     262 H3           1.1851   -23.0195   -19.9192 H3            1 Polymer 
     263 H3           0.0432   -23.3271   -21.2860 H3            1 Polymer 
     264 H3           0.1184   -24.4326   -19.8487 H3            1 Polymer 
     265 H3          -0.6982   -21.4582   -19.7282 H3            1 Polymer 
     266 H3          -0.7190   -22.6685   -18.3920 H3            1 Polymer 
     267 H3          -2.4974   -23.9235   -19.5293 H3            1 Polymer 
     268 H3          -2.5022   -22.7531   -20.9099 H3            1 Polymer 
     269 H3          -3.1331   -20.9633   -19.1481 H3            1 Polymer 
     270 H3          -3.1287   -22.3369   -17.9715 H3            1 Polymer 
     271 H3          -5.0377   -22.0927   -20.3650 H3            1 Polymer 
     272 H3          -4.9110   -23.4375   -19.1898 H3            1 Polymer 
     273 H3          -5.5096   -21.9952   -17.3664 H3            1 Polymer 
     274 H3          -5.6821   -20.5408   -18.3941 H3            1 Polymer 
     275 H5          -6.6799   -23.9601   -18.0629 H5            1 Polymer 
     276 C0          -0.5598   -27.4046   -20.4955 C0            1 Polymer 
     277 C0          -1.6547   -26.5561   -19.8540 C0            1 Polymer 
     278 C0          -3.0558   -27.1423   -20.0303 C0            1 Polymer 
     279 C0          -4.1558   -26.3388   -19.3331 C0            1 Polymer 
     280 C0          -5.5657   -26.8831   -19.6686 C0            1 Polymer 
     281 C0          -6.6729   -26.0339   -19.0696 C0            1 Polymer 
     282 C1          -8.1431   -26.0011   -19.5210 C1            1 Polymer 
     283 C1          -8.8160   -24.6993   -19.9106 C1            1 Polymer 
     284 S2         -10.5219   -25.0865   -20.4548 S2            1 Polymer 
     285 C1         -10.1933   -26.8635   -20.3999 C1            1 Polymer 
     286 C1          -8.9442   -27.0456   -19.5717 C1            1 Polymer 
     287 H3           0.4295   -26.9373   -20.3082 H3            1 Polymer 
     288 H3          -0.6910   -27.4479   -21.5935 H3            1 Polymer 
     289 H3          -0.5604   -28.4298   -20.0716 H3            1 Polymer 
     290 H3          -1.6275   -25.5904   -20.3804 H3            1 Polymer 
     291 H3          -1.4305   -26.4359   -18.7746 H3            1 Polymer 
     292 H3          -3.0848   -28.1853   -19.6527 H3            1 Polymer 
     293 H3          -3.2643   -27.0898   -21.1066 H3            1 Polymer 
     294 H3          -4.0954   -25.3188   -19.7429 H3            1 Polymer 
     295 H3          -3.9889   -26.3160   -18.2376 H3            1 Polymer 
     296 H3          -5.6365   -26.7375   -20.7458 H3            1 Polymer 
     297 H3          -5.6614   -27.9362   -19.3414 H3            1 Polymer 
     298 H3          -6.6134   -26.1271   -17.9643 H3            1 Polymer 
     299 H3          -6.3124   -25.1103   -19.5444 H3            1 Polymer 
     300 H5          -8.6210   -28.0271   -19.2620 H5            1 Polymer 
     301 C0          -1.5254   -29.5534   -23.6753 C0            1 Polymer 
     302 C0          -2.6032   -28.7751   -22.9353 C0            1 Polymer 
     303 C0          -4.0353   -29.1966   -23.2826 C0            1 Polymer 
     304 C0          -5.0668   -28.4308   -22.4653 C0            1 Polymer 
     305 C0          -6.5235   -28.8547   -22.6982 C0            1 Polymer 
     306 C0          -7.4922   -28.1794   -21.7199 C0            1 Polymer 
     307 C1          -8.9721   -28.4615   -21.8797 C1            1 Polymer 
     308 C1          -9.9903   -27.3691   -21.8868 C1            1 Polymer 
     309 S2         -11.5529   -28.1289   -22.4624 S2            1 Polymer 
     310 C1         -10.8589   -29.8232   -22.3541 C1            1 Polymer 
     311 C1          -9.4811   -29.6604   -21.8280 C1            1 Polymer 
     312 H3          -0.5262   -29.1823   -23.3629 H3            1 Polymer 
     313 H3          -1.6265   -29.4178   -24.7709 H3            1 Polymer 
     314 H3          -1.5806   -30.6280   -23.4073 H3            1 Polymer 
     315 H3          -2.4757   -27.6949   -23.1662 H3            1 Polymer 
     316 H3          -2.4347   -28.9768   -21.8597 H3            1 Polymer 
     317 H3          -4.1396   -30.2587   -23.0005 H3            1 Polymer 
     318 H3          -4.2272   -29.0192   -24.3599 H3            1 Polymer 
     319 H3          -4.9636   -27.3478   -22.6968 H3            1 Polymer 
     320 H3          -4.8329   -28.6674   -21.4097 H3            1 Polymer 
     321 H3          -6.8109   -28.6241   -23.7458 H3            1 Polymer 
     322 H3          -6.5588   -29.9310   -22.4594 H3            1 Polymer 
     323 H3          -7.1914   -28.5562   -20.7321 H3            1 Polymer 
     324 H3          -7.3842   -27.0815   -21.8401 H3            1 Polymer 
     325 H5          -8.8625   -30.4920   -21.5853 H5            1 Polymer 
     326 C0          -2.4326   -32.7758   -25.6197 C0            1 Polymer 
     327 C0          -3.5073   -32.0698   -24.8133 C0            1 Polymer 
     328 C0          -4.9343   -32.4583   -25.2023 C0            1 Polymer 
     329 C0          -5.9618   -31.7791   -24.3166 C0            1 Polymer 
     330 C0          -7.4046   -32.1375   -24.6872 C0            1 Polymer 
     331 C0          -8.3498   -31.5648   -23.6419 C0            1 Polymer 
     332 C1          -9.8390   -31.6455   -23.8714 C1            1 Polymer 
     333 C1         -10.7547   -30.4370   -23.8076 C1            1 Polymer 
     334 S2         -12.4029   -31.0295   -24.3352 S2            1 Polymer 
     335 C1         -11.7936   -32.7298   -24.6605 C1            1 Polymer 
     336 C1         -10.4141   -32.7875   -24.1413 C1            1 Polymer 
     337 H3          -1.4351   -32.4274   -25.2709 H3            1 Polymer 
     338 H3          -2.5288   -32.5183   -26.6938 H3            1 Polymer 
     339 H3          -2.4969   -33.8725   -25.4745 H3            1 Polymer 
     340 H3          -3.3826   -30.9946   -25.0135 H3            1 Polymer 
     341 H3          -3.3382   -32.3011   -23.7385 H3            1 Polymer 
     342 H3          -5.0612   -33.5483   -25.0727 H3            1 Polymer 
     343 H3          -5.1198   -32.1290   -26.2407 H3            1 Polymer 
     344 H3          -5.8537   -30.6914   -24.4556 H3            1 Polymer 
     345 H3          -5.7607   -32.0676   -23.2590 H3            1 Polymer 
     346 H3          -7.6202   -31.6908   -25.6807 H3            1 Polymer 
     347 H3          -7.5196   -33.2371   -24.6843 H3            1 Polymer 
     348 H3          -8.0911   -32.0685   -22.6873 H3            1 Polymer 
     349 H3          -8.1437   -30.4925   -23.6792 H3            1 Polymer 
     350 H5          -9.8607   -33.7051   -24.1286 H5            1 Polymer 
     351 C0          -3.4200   -35.1760   -28.5169 C0            1 Polymer 
     352 C0          -4.5551   -34.5654   -27.7153 C0            1 Polymer 
     353 C0          -5.9590   -34.8769   -28.2695 C0            1 Polymer 
     354 C0          -7.0247   -34.2980   -27.3292 C0            1 Polymer 
     355 C0          -8.4982   -34.5185   -27.7590 C0            1 Polymer 
     356 C0          -9.3919   -34.1031   -26.5710 C0            1 Polymer 
     357 C1         -10.8965   -34.1312   -26.6842 C1            1 Polymer 
     358 C1         -11.7838   -32.9776   -26.2080 C1            1 Polymer 
     359 S2         -13.4867   -33.3898   -26.7122 S2            1 Polymer 
     360 C1         -12.9311   -35.0351   -27.1264 C1            1 Polymer 
     361 C1         -11.5665   -35.1922   -27.1129 C1            1 Polymer 
     362 H3          -2.4538   -34.8849   -28.0460 H3            1 Polymer 
     363 H3          -3.4356   -34.7951   -29.5570 H3            1 Polymer 
     364 H3          -3.4968   -36.2818   -28.5047 H3            1 Polymer 
     365 H3          -4.4050   -33.4707   -27.7289 H3            1 Polymer 
     366 H3          -4.4668   -34.9543   -26.6780 H3            1 Polymer 
     367 H3          -6.0950   -35.9773   -28.3199 H3            1 Polymer 
     368 H3          -6.0638   -34.4370   -29.2828 H3            1 Polymer 
     369 H3          -6.8623   -33.2054   -27.2310 H3            1 Polymer 
     370 H3          -6.8613   -34.7759   -26.3361 H3            1 Polymer 
     371 H3          -8.7196   -33.9167   -28.6649 H3            1 Polymer 
     372 H3          -8.6705   -35.5941   -27.9673 H3            1 Polymer 
     373 H3          -9.1055   -34.7946   -25.7549 H3            1 Polymer 
     374 H3          -9.1426   -33.0616   -26.3411 H3            1 Polymer 
     375 H5         -11.0794   -36.1083   -27.4346 H5            1 Polymer 
     376 H4           2.5112     5.2810     1.1477 H4            1 Polymer 
     377 H5         -13.6072   -35.8148   -27.4408 H5            1 Polymer 
@<TRIPOS>BOND
       1        2        1 1
       2       12        1 1
       3       13        1 1
       4       14        1 1
       5        3        2 1
       6       15        2 1
       7       16        2 1
       8        4        3 1
       9       17        3 1
      10       18        3 1
      11        5        4 1
      12       19        4 1
      13       20        4 1
      14        6        5 1
      15       21        5 1
      16       22        5 1
      17        7        6 1
      18       23        6 1
      19       24        6 1
      20        8        7 1
      21       11        7 1
      22        9        8 1
      23      376        8 1
      24       10        9 1
      25       11       10 1
      26       33       10 1
      27       25       11 1
      28       27       26 1
      29       37       26 1
      30       38       26 1
      31       39       26 1
      32       28       27 1
      33       40       27 1
      34       41       27 1
      35       29       28 1
      36       42       28 1
      37       43       28 1
      38       30       29 1
      39       44       29 1
      40       45       29 1
      41       31       30 1
      42       46       30 1
      43       47       30 1
      44       32       31 1
      45       48       31 1
      46       49       31 1
      47       33       32 1
      48       36       32 1
      49       34       33 1
      50       35       34 1
      51       36       35 1
      52       58       35 1
      53       50       36 1
      54       52       51 1
      55       62       51 1
      56       63       51 1
      57       64       51 1
      58       53       52 1
      59       65       52 1
      60       66       52 1
      61       54       53 1
      62       67       53 1
      63       68       53 1
      64       55       54 1
      65       69       54 1
      66       70       54 1
      67       56       55 1
      68       71       55 1
      69       72       55 1
      70       57       56 1
      71       73       56 1
      72       74       56 1
      73       58       57 1
      74       61       57 1
      75       59       58 1
      76       60       59 1
      77       61       60 1
      78       83       60 1
      79       75       61 1
      80       77       76 1
      81       87       76 1
      82       88       76 1
      83       89       76 1
      84       78       77 1
      85       90       77 1
      86       91       77 1
      87       79       78 1
      88       92       78 1
      89       93       78 1
      90       80       79 1
      91       94       79 1
      92       95       79 1
      93       81       80 1
      94       96       80 1
      95       97       80 1
      96       82       81 1
      97       98       81 1
      98       99       81 1
      99       83       82 1
     100       86       82 1
     101       84       83 1
     102       85       84 1
     103       86       85 1
     104      108       85 1
     105      100       86 1
     106      102      101 1
     107      112      101 1
     108      113      101 1
     109      114      101 1
     110      103      102 1
     111      115      102 1
     112      116      102 1
     113      104      103 1
     114      117      103 1
     115      118      103 1
     116      105      104 1
     117      119      104 1
     118      120      104 1
     119      106      105 1
     120      121      105 1
     121      122      105 1
     122      107      106 1
     123      123      106 1
     124      124      106 1
     125      108      107 1
     126      111      107 1
     127      109      108 1
     128      110      109 1
     129      111      110 1
     130      133      110 1
     131      125      111 1
     132      127      126 1
     133      137      126 1
     134      138      126 1
     135      139      126 1
     136      128      127 1
     137      140      127 1
     138      141      127 1
     139      129      128 1
     140      142      128 1
     141      143      128 1
     142      130      129 1
     143      144      129 1
     144      145      129 1
     145      131      130 1
     146      146      130 1
     147      147      130 1
     148      132      131 1
     149      148      131 1
     150      149      131 1
     151      133      132 1
     152      136      132 1
     153      134      133 1
     154      135      134 1
     155      136      135 1
     156      158      135 1
     157      150      136 1
     158      152      151 1
     159      162      151 1
     160      163      151 1
     161      164      151 1
     162      153      152 1
     163      165      152 1
     164      166      152 1
     165      154      153 1
     166      167      153 1
     167      168      153 1
     168      155      154 1
     169      169      154 1
     170      170      154 1
     171      156      155 1
     172      171      155 1
     173      172      155 1
     174      157      156 1
     175      173      156 1
     176      174      156 1
     177      158      157 1
     178      161      157 1
     179      159      158 1
     180      160      159 1
     181      161      160 1
     182      183      160 1
     183      175      161 1
     184      177      176 1
     185      187      176 1
     186      188      176 1
     187      189      176 1
     188      178      177 1
     189      190      177 1
     190      191      177 1
     191      179      178 1
     192      192      178 1
     193      193      178 1
     194      180      179 1
     195      194      179 1
     196      195      179 1
     197      181      180 1
     198      196      180 1
     199      197      180 1
     200      182      181 1
     201      198      181 1
     202      199      181 1
     203      183      182 1
     204      186      182 1
     205      184      183 1
     206      185      184 1
     207      186      185 1
     208      208      185 1
     209      200      186 1
     210      202      201 1
     211      212      201 1
     212      213      201 1
     213      214      201 1
     214      203      202 1
     215      215      202 1
     216      216      202 1
     217      204      203 1
     218      217      203 1
     219      218      203 1
     220      205      204 1
     221      219      204 1
     222      220      204 1
     223      206      205 1
     224      221      205 1
     225      222      205 1
     226      207      206 1
     227      223      206 1
     228      224      206 1
     229      208      207 1
     230      211      207 1
     231      209      208 1
     232      210      209 1
     233      211      210 1
     234      233      210 1
     235      225      211 1
     236      227      226 1
     237      237      226 1
     238      238      226 1
     239      239      226 1
     240      228      227 1
     241      240      227 1
     242      241      227 1
     243      229      228 1
     244      242      228 1
     245      243      228 1
     246      230      229 1
     247      244      229 1
     248      245      229 1
     249      231      230 1
     250      246      230 1
     251      247      230 1
     252      232      231 1
     253      248      231 1
     254      249      231 1
     255      233      232 1
     256      236      232 1
     257      234      233 1
     258      235      234 1
     259      236      235 1
     260      258      235 1
     261      250      236 1
     262      252      251 1
     263      262      251 1
     264      263      251 1
     265      264      251 1
     266      253      252 1
     267      265      252 1
     268      266      252 1
     269      254      253 1
     270      267      253 1
     271      268      253 1
     272      255      254 1
     273      269      254 1
     274      270      254 1
     275      256      255 1
     276      271      255 1
     277      272      255 1
     278      257      256 1
     279      273      256 1
     280      274      256 1
     281      258      257 1
     282      261      257 1
     283      259      258 1
     284      260      259 1
     285      261      260 1
     286      283      260 1
     287      275      261 1
     288      277      276 1
     289      287      276 1
     290      288      276 1
     291      289      276 1
     292      278      277 1
     293      290      277 1
     294      291      277 1
     295      279      278 1
     296      292      278 1
     297      293      278 1
     298      280      279 1
     299      294      279 1
     300      295      279 1
     301      281      280 1
     302      296      280 1
     303      297      280 1
     304      282      281 1
     305      298      281 1
     306      299      281 1
     307      283      282 1
     308      286      282 1
     309      284      283 1
     310      285      284 1
     311      286      285 1
     312      308      285 1
     313      300      286 1
     314      302      301 1
     315      312      301 1
     316      313      301 1
     317      314      301 1
     318      303      302 1
     319      315      302 1
     320      316      302 1
     321      304      303 1
     322      317      303 1
     323      318      303 1
     324      305      304 1
     325      319      304 1
     326      320      304 1
     327      306      305 1
     328      321      305 1
     329      322      305 1
     330      307      306 1
     331      323      306 1
     332      324      306 1
     333      308      307 1
     334      311      307 1
     335      309      308 1
     336      310      309 1
     337      311      310 1
     338      333      310 1
     339      325      311 1
     340      327      326 1
     341      337      326 1
     342      338      326 1
     343      339      326 1
     344      328      327 1
     345      340      327 1
     346      341      327 1
     347      329      328 1
     348      342      328 1
     349      343      328 1
     350      330      329 1
     351      344      329 1
     352      345      329 1
     353      331      330 1
     354      346      330 1
     355      347      330 1
     356      332      331 1
     357      348      331 1
     358      349      331 1
     359      333      332 1
     360      336      332 1
     361      334      333 1
     362      335      334 1
     363      336      335 1
     364      358      335 1
     365      350      336 1
     366      352      351 1
     367      362      351 1
     368      363      351 1
     369      364      351 1
     370      353      352 1
     371      365      352 1
     372      366      352 1
     373      354      353 1
     374      367      353 1
     375      368      353 1
     376      355      354 1
     377      369      354 1
     378      370      354 1
     379      356      355 1
     380      371      355 1
     381      372      355 1
     382      357      356 1
     383      373      356 1
     384      374      356 1
     385      358      357 1
     386      361      357 1
     387      359      358 1
     388      360      359 1
     389      361      360 1
     390      377      360 1
     391      375      361 1
@<TRIPOS>SUBSTRUCTURE
       1 Polymer         1 RESIDUE    0 **** ROOT      0
