@<TRIPOS>MOLECULE
Compound
27 27 1 0 1
SMALL
NO_CHARGES
@<TRIPOS>CRYSIN
   15.8064     9.2671     8.2184    90.0000    90.0000    90.0000  1  1
@<TRIPOS>ATOM
       1 C0           9.3480    -0.2243    -0.4680 C0            1 Compound
       2 C0           8.1533     0.1547     0.4014 C0            1 Compound
       3 C0           6.8270    -0.2125    -0.2773 C0            1 Compound
       4 C0           5.6404     0.2248     0.5887 C0            1 Compound
       5 C0           4.2997    -0.1074    -0.0784 C0            1 Compound
       6 C0           3.1356     0.4196     0.7716 C0            1 Compound
       7 C1           1.8059     0.1401     0.1310 C1            1 Compound
       8 C1           0.9395     1.1460    -0.2877 C1            1 Compound
       9 S2          -0.4334     0.4268    -0.9347 S2            1 Compound
      10 C1           0.0514    -1.1636    -0.6888 C1            1 Compound
      11 C1           1.3055    -1.1529    -0.0947 C1            1 Compound
      12 H3          10.2883     0.0575     0.0513 H3            1 Compound
      13 H3           9.3039     0.3160    -1.4378 H3            1 Compound
      14 H3           9.3584    -1.3185    -0.6578 H3            1 Compound
      15 H3           8.1865     1.2508     0.5865 H3            1 Compound
      16 H3           8.2321    -0.3735     1.3768 H3            1 Compound
      17 H3           6.7859    -1.3116    -0.4445 H3            1 Compound
      18 H3           6.7660     0.3023    -1.2617 H3            1 Compound
      19 H3           5.7036     1.3251     0.7452 H3            1 Compound
      20 H3           5.6938    -0.2803     1.5785 H3            1 Compound
      21 H3           4.2581     0.3758    -1.0800 H3            1 Compound
      22 H3           4.2131    -1.2078    -0.2085 H3            1 Compound
      23 H3           3.1543    -0.0463     1.7806 H3            1 Compound
      24 H3           3.2593     1.5186     0.8936 H3            1 Compound
      25 H4           1.1175     2.2108    -0.2114 H4            1 Compound
      26 H4          -0.5181    -2.0459    -0.9461 H4            1 Compound
      27 H5           1.8383    -2.0563     0.1721 H5            1 Compound
@<TRIPOS>BOND
       1        2        1 1
       2       12        1 1
       3       13        1 1
       4       14        1 1
       5        3        2 1
       6       15        2 1
       7       16        2 1
       8        4        3 1
       9       17        3 1
      10       18        3 1
      11        5        4 1
      12       19        4 1
      13       20        4 1
      14        6        5 1
      15       21        5 1
      16       22        5 1
      17        7        6 1
      18       23        6 1
      19       24        6 1
      20        8        7 1
      21       11        7 1
      22        9        8 1
      23       25        8 1
      24       10        9 1
      25       11       10 1
      26       26       10 1
      27       27       11 1
@<TRIPOS>SUBSTRUCTURE
       1 Compound        1 RESIDUE    0 **** ROOT      0
