@<TRIPOS>MOLECULE
Polymer
377 391 1 0 1
SMALL
NO_CHARGES
@<TRIPOS>CRYSIN
   29.2737    46.5551    38.4378    90.0000    90.0000    90.0000  1  1
@<TRIPOS>ATOM
       1 C0           9.6854     1.4026     1.3628 C0            1 Polymer 
       2 C0           8.7048     2.1809     2.2485 C0            1 Polymer 
       3 C0           7.2401     1.8694     1.9193 C0            1 Polymer 
       4 C0           6.2519     2.7254     2.7443 C0            1 Polymer 
       5 C0           4.8024     2.4943     2.2896 C0            1 Polymer 
       6 C0           3.7736     3.4756     2.8987 C0            1 Polymer 
       7 C1           2.4596     3.3847     2.1856 C1            1 Polymer 
       8 C1           1.9712     4.4171     1.2523 C1            1 Polymer 
       9 S2           0.3615     4.0664     0.5707 S2            1 Polymer 
      10 C1           0.5137     2.3611     1.2032 C1            1 Polymer 
      11 C1           1.6306     2.3562     2.2140 C1            1 Polymer 
      12 H3          10.7251     1.6825     1.6222 H3            1 Polymer 
      13 H3           9.5205     1.6447     0.2904 H3            1 Polymer 
      14 H3           9.5848     0.3127     1.5265 H3            1 Polymer 
      15 H3           8.8776     3.2624     2.0891 H3            1 Polymer 
      16 H3           8.8978     1.9272     3.3098 H3            1 Polymer 
      17 H3           7.0489     0.7952     2.1098 H3            1 Polymer 
      18 H3           7.0843     2.1019     0.8429 H3            1 Polymer 
      19 H3           6.4988     3.7915     2.5646 H3            1 Polymer 
      20 H3           6.3496     2.4959     3.8261 H3            1 Polymer 
      21 H3           4.7852     2.6577     1.1877 H3            1 Polymer 
      22 H3           4.5245     1.4468     2.5301 H3            1 Polymer 
      23 H3           3.6440     3.3044     3.9885 H3            1 Polymer 
      24 H3           4.1696     4.4980     2.7381 H3            1 Polymer 
      25 H5           1.8302     1.4956     2.8374 H5            1 Polymer 
      26 C0           8.7701    -1.5050    -1.0765 C0            1 Polymer 
      27 C0           7.7469    -0.8181    -0.1698 C0            1 Polymer 
      28 C0           6.3015    -1.2090    -0.4439 C0            1 Polymer 
      29 C0           5.3085    -0.4619     0.4604 C0            1 Polymer 
      30 C0           3.8499    -0.7328     0.0950 C0            1 Polymer 
      31 C0           2.8519     0.0563     0.9531 C0            1 Polymer 
      32 C1           1.4237     0.1374     0.4275 C1            1 Polymer 
      33 C1           0.8241     1.4394    -0.0151 C1            1 Polymer 
      34 S2          -0.7612     1.0705    -0.8456 S2            1 Polymer 
      35 C1          -0.5637    -0.7131    -0.5724 C1            1 Polymer 
      36 C1           0.6276    -0.8952     0.3163 C1            1 Polymer 
      37 H3           9.7874    -1.1427    -0.8267 H3            1 Polymer 
      38 H3           8.5834    -1.2577    -2.1424 H3            1 Polymer 
      39 H3           8.7664    -2.6027    -0.9265 H3            1 Polymer 
      40 H3           7.8350     0.2674    -0.3509 H3            1 Polymer 
      41 H3           7.9796    -1.0771     0.8812 H3            1 Polymer 
      42 H3           6.2009    -2.2899    -0.2501 H3            1 Polymer 
      43 H3           6.0892    -0.9408    -1.4973 H3            1 Polymer 
      44 H3           5.4717     0.6165     0.3012 H3            1 Polymer 
      45 H3           5.4812    -0.7467     1.5181 H3            1 Polymer 
      46 H3           3.7479    -0.3872    -0.9548 H3            1 Polymer 
      47 H3           3.6630    -1.8052     0.2338 H3            1 Polymer 
      48 H3           2.8832    -0.3168     1.9978 H3            1 Polymer 
      49 H3           3.2194     1.0786     0.8569 H3            1 Polymer 
      50 H5           0.9089    -1.8686     0.6804 H5            1 Polymer 
      51 C0           7.8219    -4.1079    -3.6990 C0            1 Polymer 
      52 C0           6.7814    -3.3504    -2.8760 C0            1 Polymer 
      53 C0           5.3343    -3.7792    -3.0955 C0            1 Polymer 
      54 C0           4.3405    -3.0053    -2.2293 C0            1 Polymer 
      55 C0           2.8780    -3.3811    -2.4443 C0            1 Polymer 
      56 C0           1.9468    -2.6361    -1.4955 C0            1 Polymer 
      57 C1           0.4632    -2.6482    -1.7723 C1            1 Polymer 
      58 C1          -0.3054    -1.3759    -1.9723 C1            1 Polymer 
      59 S2          -1.9286    -1.8287    -2.6428 S2            1 Polymer 
      60 C1          -1.5391    -3.6018    -2.4756 C1            1 Polymer 
      61 C1          -0.2800    -3.7117    -1.7169 C1            1 Polymer 
      62 H3           8.8309    -3.7041    -3.4778 H3            1 Polymer 
      63 H3           7.6314    -3.9909    -4.7874 H3            1 Polymer 
      64 H3           7.8388    -5.1795    -3.4172 H3            1 Polymer 
      65 H3           6.8620    -2.2808    -3.1433 H3            1 Polymer 
      66 H3           7.0222    -3.5419    -1.8181 H3            1 Polymer 
      67 H3           5.2627    -4.8304    -2.7755 H3            1 Polymer 
      68 H3           5.0810    -3.6235    -4.1681 H3            1 Polymer 
      69 H3           4.4365    -1.9330    -2.4740 H3            1 Polymer 
      70 H3           4.5720    -3.2414    -1.1776 H3            1 Polymer 
      71 H3           2.6190    -3.1416    -3.5018 H3            1 Polymer 
      72 H3           2.7855    -4.4445    -2.1734 H3            1 Polymer 
      73 H3           2.1408    -3.0583    -0.4916 H3            1 Polymer 
      74 H3           2.2018    -1.5820    -1.6277 H3            1 Polymer 
      75 H5           0.1064    -4.6495    -1.3944 H5            1 Polymer 
      76 C0           6.9195    -7.3763    -5.3077 C0            1 Polymer 
      77 C0           5.8741    -6.6707    -4.4418 C0            1 Polymer 
      78 C0           4.4085    -7.0159    -4.7221 C0            1 Polymer 
      79 C0           3.3797    -6.2755    -3.8427 C0            1 Polymer 
      80 C0           1.9073    -6.5262    -4.2144 C0            1 Polymer 
      81 C0           0.8366    -5.8031    -3.3598 C0            1 Polymer 
      82 C1          -0.6287    -5.5479    -3.8102 C1            1 Polymer 
      83 C1          -1.2278    -4.1488    -3.9055 C1            1 Polymer 
      84 S2          -2.8289    -4.2298    -4.7621 S2            1 Polymer 
      85 C1          -2.6909    -6.0136    -4.9058 C1            1 Polymer 
      86 C1          -1.5082    -6.4754    -4.0734 C1            1 Polymer 
      87 H3           7.9354    -7.0413    -5.0127 H3            1 Polymer 
      88 H3           6.8054    -7.0894    -6.3727 H3            1 Polymer 
      89 H3           6.8645    -8.4776    -5.1844 H3            1 Polymer 
      90 H3           5.9901    -5.6119    -4.6968 H3            1 Polymer 
      91 H3           6.1035    -6.8868    -3.3792 H3            1 Polymer 
      92 H3           4.2626    -8.1096    -4.5883 H3            1 Polymer 
      93 H3           4.2403    -6.6645    -5.7549 H3            1 Polymer 
      94 H3           3.5308    -5.2166    -4.0655 H3            1 Polymer 
      95 H3           3.5543    -6.5346    -2.7787 H3            1 Polymer 
      96 H3           1.8390    -6.1021    -5.2299 H3            1 Polymer 
      97 H3           1.7412    -7.6212    -4.1270 H3            1 Polymer 
      98 H3           0.8768    -6.2914    -2.3662 H3            1 Polymer 
      99 H3           1.1834    -4.7871    -3.3943 H3            1 Polymer 
     100 H5          -1.2656    -7.5217    -3.9472 H5            1 Polymer 
     101 C0           5.9159    -9.1813    -8.3867 C0            1 Polymer 
     102 C0           4.8643    -8.2913    -7.7240 C0            1 Polymer 
     103 C0           3.3945    -8.6700    -7.9304 C0            1 Polymer 
     104 C0           2.4052    -7.7479    -7.2066 C0            1 Polymer 
     105 C0           0.9197    -8.0997    -7.3448 C0            1 Polymer 
     106 C0           0.0033    -7.2137    -6.4899 C0            1 Polymer 
     107 C1          -1.4783    -7.4148    -6.5580 C1            1 Polymer 
     108 C1          -2.4464    -6.2907    -6.4451 C1            1 Polymer 
     109 S2          -4.0048    -6.9181    -7.0807 S2            1 Polymer 
     110 C1          -3.4443    -8.6115    -6.6696 C1            1 Polymer 
     111 C1          -2.0744    -8.4992    -6.1713 C1            1 Polymer 
     112 H3           6.9280    -8.7791    -8.1725 H3            1 Polymer 
     113 H3           5.7730    -9.2254    -9.4850 H3            1 Polymer 
     114 H3           5.9108   -10.1950    -7.9412 H3            1 Polymer 
     115 H3           5.0211    -7.2473    -8.0610 H3            1 Polymer 
     116 H3           5.0607    -8.4249    -6.6613 H3            1 Polymer 
     117 H3           3.2922    -9.6390    -7.4241 H3            1 Polymer 
     118 H3           3.1611    -8.6897    -9.0156 H3            1 Polymer 
     119 H3           2.5660    -6.6974    -7.5206 H3            1 Polymer 
     120 H3           2.6146    -7.9236    -6.1554 H3            1 Polymer 
     121 H3           0.6187    -8.0620    -8.4115 H3            1 Polymer 
     122 H3           0.8539    -9.0887    -6.8742 H3            1 Polymer 
     123 H3           0.2262    -7.5449    -5.4909 H3            1 Polymer 
     124 H3           0.2081    -6.1457    -6.6892 H3            1 Polymer 
     125 H5          -1.5514    -9.3251    -5.7546 H5            1 Polymer 
     126 C0           4.9841   -12.6776    -9.2449 C0            1 Polymer 
     127 C0           3.9520   -11.8546    -8.4713 C0            1 Polymer 
     128 C0           2.4742   -12.2191    -8.6668 C0            1 Polymer 
     129 C0           1.4551   -11.3729    -7.8755 C0            1 Polymer 
     130 C0          -0.0240   -11.6998    -8.1633 C0            1 Polymer 
     131 C0          -1.0902   -10.8899    -7.3947 C0            1 Polymer 
     132 C1          -2.5964   -10.7276    -7.7664 C1            1 Polymer 
     133 C1          -3.2743    -9.3759    -8.0104 C1            1 Polymer 
     134 S2          -4.9744    -9.6098    -8.5805 S2            1 Polymer 
     135 C1          -4.6787   -11.3622    -8.6474 C1            1 Polymer 
     136 C1          -3.4575   -11.7042    -7.8294 C1            1 Polymer 
     137 H3           6.0065   -12.3209    -8.9981 H3            1 Polymer 
     138 H3           4.8775   -12.5119   -10.3359 H3            1 Polymer 
     139 H3           4.9143   -13.7555    -8.9943 H3            1 Polymer 
     140 H3           4.0739   -10.8586    -8.9015 H3            1 Polymer 
     141 H3           4.2036   -11.9052    -7.3916 H3            1 Polymer 
     142 H3           2.3287   -13.2878    -8.4049 H3            1 Polymer 
     143 H3           2.2795   -11.9783    -9.7237 H3            1 Polymer 
     144 H3           1.5769   -10.3726    -8.2913 H3            1 Polymer 
     145 H3           1.6645   -11.4462    -6.7882 H3            1 Polymer 
     146 H3          -0.1303   -11.3906    -9.2137 H3            1 Polymer 
     147 H3          -0.1723   -12.7782    -7.9411 H3            1 Polymer 
     148 H3          -0.9824   -11.2092    -6.3391 H3            1 Polymer 
     149 H3          -0.7699    -9.8928    -7.6464 H3            1 Polymer 
     150 H5          -3.1723   -12.7178    -7.6097 H5            1 Polymer 
     151 C0           3.8816   -14.5275   -12.2718 C0            1 Polymer 
     152 C0           2.8238   -13.6303   -11.6254 C0            1 Polymer 
     153 C0           1.3514   -14.0626   -11.7302 C0            1 Polymer 
     154 C0           0.3624   -13.0982   -11.0645 C0            1 Polymer 
     155 C0          -1.1262   -13.4895   -11.0991 C0            1 Polymer 
     156 C0          -2.0240   -12.5574   -10.2758 C0            1 Polymer 
     157 C1          -3.4990   -12.7899   -10.2568 C1            1 Polymer 
     158 C1          -4.4703   -11.6661   -10.1599 C1            1 Polymer 
     159 S2          -6.0665   -12.2935   -10.6378 S2            1 Polymer 
     160 C1          -5.4563   -13.9774   -10.2773 C1            1 Polymer 
     161 C1          -4.0789   -13.8666    -9.7968 C1            1 Polymer 
     162 H3           4.8837   -14.0669   -12.1370 H3            1 Polymer 
     163 H3           3.6921   -14.6545   -13.3553 H3            1 Polymer 
     164 H3           3.9548   -15.5051   -11.7562 H3            1 Polymer 
     165 H3           2.9376   -12.6066   -12.0358 H3            1 Polymer 
     166 H3           3.0772   -13.6929   -10.5676 H3            1 Polymer 
     167 H3           1.2916   -14.9568   -11.1009 H3            1 Polymer 
     168 H3           1.0749   -14.2085   -12.7947 H3            1 Polymer 
     169 H3           0.4900   -12.0767   -11.4767 H3            1 Polymer 
     170 H3           0.6228   -13.1813   -10.0150 H3            1 Polymer 
     171 H3          -1.4771   -13.5553   -12.1491 H3            1 Polymer 
     172 H3          -1.1687   -14.4184   -10.5283 H3            1 Polymer 
     173 H3          -1.7598   -12.7982    -9.2619 H3            1 Polymer 
     174 H3          -1.8505   -11.5049   -10.5731 H3            1 Polymer 
     175 H5          -3.5637   -14.7010    -9.3809 H5            1 Polymer 
     176 C0           2.9554   -18.1074   -12.8413 C0            1 Polymer 
     177 C0           1.9010   -17.4195   -11.9661 C0            1 Polymer 
     178 C0           0.4143   -17.6534   -12.3217 C0            1 Polymer 
     179 C0          -0.6320   -16.9743   -11.3938 C0            1 Polymer 
     180 C0          -2.1105   -17.0857   -11.8714 C0            1 Polymer 
     181 C0          -3.2207   -16.3620   -11.0450 C0            1 Polymer 
     182 C1          -4.6805   -16.0416   -11.5425 C1            1 Polymer 
     183 C1          -5.2834   -14.6408   -11.6555 C1            1 Polymer 
     184 S2          -6.9683   -14.7031   -12.3506 S2            1 Polymer 
     185 C1          -6.7378   -16.4072   -12.7202 C1            1 Polymer 
     186 C1          -5.5647   -16.9376   -11.8913 C1            1 Polymer 
     187 H3           3.9690   -17.8414   -12.4692 H3            1 Polymer 
     188 H3           2.9454   -17.7241   -13.8825 H3            1 Polymer 
     189 H3           2.8424   -19.2069   -12.8198 H3            1 Polymer 
     190 H3           2.1052   -16.3884   -12.1806 H3            1 Polymer 
     191 H3           2.0913   -17.6681   -10.9050 H3            1 Polymer 
     192 H3           0.2126   -18.7432   -12.3521 H3            1 Polymer 
     193 H3           0.3119   -17.1422   -13.2828 H3            1 Polymer 
     194 H3          -0.4024   -15.9407   -11.5021 H3            1 Polymer 
     195 H3          -0.5134   -17.3070   -10.3460 H3            1 Polymer 
     196 H3          -2.0753   -16.5159   -12.8201 H3            1 Polymer 
     197 H3          -2.3667   -18.1597   -11.9621 H3            1 Polymer 
     198 H3          -3.2560   -16.8166   -10.0358 H3            1 Polymer 
     199 H3          -2.7904   -15.3919   -11.0763 H3            1 Polymer 
     200 H5          -5.3196   -17.9851   -11.8262 H5            1 Polymer 
     201 C0           1.9670   -19.0726   -16.4227 C0            1 Polymer 
     202 C0           0.9184   -18.1944   -15.7356 C0            1 Polymer 
     203 C0          -0.5580   -18.5684   -15.9469 C0            1 Polymer 
     204 C0          -1.5369   -17.6429   -15.2062 C0            1 Polymer 
     205 C0          -3.0295   -17.9704   -15.3602 C0            1 Polymer 
     206 C0          -3.9421   -17.1228   -14.4545 C0            1 Polymer 
     207 C1          -5.4020   -17.4170   -14.5325 C1            1 Polymer 
     208 C1          -6.4544   -16.4137   -14.2770 C1            1 Polymer 
     209 S2          -7.9428   -17.0749   -15.0221 S2            1 Polymer 
     210 C1          -7.2984   -18.7512   -14.6572 C1            1 Polymer 
     211 C1          -5.9090   -18.5740   -14.2283 C1            1 Polymer 
     212 H3           2.9772   -18.6566   -16.2174 H3            1 Polymer 
     213 H3           1.8073   -19.1083   -17.5177 H3            1 Polymer 
     214 H3           1.9939   -20.0919   -15.9919 H3            1 Polymer 
     215 H3           1.0797   -17.1422   -16.0435 H3            1 Polymer 
     216 H3           1.1258   -18.3427   -14.6847 H3            1 Polymer 
     217 H3          -0.6749   -19.5285   -15.4479 H3            1 Polymer 
     218 H3          -0.7926   -18.5935   -17.0282 H3            1 Polymer 
     219 H3          -1.3542   -16.5844   -15.4759 H3            1 Polymer 
     220 H3          -1.3378   -17.8536   -14.1678 H3            1 Polymer 
     221 H3          -3.3338   -17.8957   -16.4219 H3            1 Polymer 
     222 H3          -3.1270   -18.9702   -14.9557 H3            1 Polymer 
     223 H3          -3.7315   -17.4759   -13.4740 H3            1 Polymer 
     224 H3          -3.7588   -16.0389   -14.5883 H3            1 Polymer 
     225 H5          -5.3082   -19.3470   -13.8216 H5            1 Polymer 
     226 C0           1.0506   -22.8486   -16.8672 C0            1 Polymer 
     227 C0          -0.0022   -22.0668   -16.0814 C0            1 Polymer 
     228 C0          -1.4650   -22.3924   -16.4222 C0            1 Polymer 
     229 C0          -2.5187   -21.6577   -15.5702 C0            1 Polymer 
     230 C0          -3.9696   -21.8917   -16.0544 C0            1 Polymer 
     231 C0          -5.0603   -21.1169   -15.2917 C0            1 Polymer 
     232 C1          -6.5221   -20.8669   -15.7773 C1            1 Polymer 
     233 C1          -7.1315   -19.4849   -16.0028 C1            1 Polymer 
     234 S2          -8.8098   -19.6352   -16.6909 S2            1 Polymer 
     235 C1          -8.6196   -21.3984   -16.8152 C1            1 Polymer 
     236 C1          -7.3953   -21.8137   -16.0053 C1            1 Polymer 
     237 H3           2.0641   -22.5299   -16.5351 H3            1 Polymer 
     238 H3           1.0034   -22.6139   -17.9506 H3            1 Polymer 
     239 H3           0.9444   -23.9361   -16.6975 H3            1 Polymer 
     240 H3           0.1743   -21.0460   -16.3991 H3            1 Polymer 
     241 H3           0.1831   -22.2014   -14.9970 H3            1 Polymer 
     242 H3          -1.6347   -23.4850   -16.3323 H3            1 Polymer 
     243 H3          -1.6053   -22.0106   -17.4440 H3            1 Polymer 
     244 H3          -2.3330   -20.6142   -15.7552 H3            1 Polymer 
     245 H3          -2.3977   -21.8964   -14.4949 H3            1 Polymer 
     246 H3          -3.9566   -21.4315   -17.0612 H3            1 Polymer 
     247 H3          -4.1936   -22.9766   -16.0294 H3            1 Polymer 
     248 H3          -5.0646   -21.4776   -14.2409 H3            1 Polymer 
     249 H3          -4.6301   -20.1494   -15.4649 H3            1 Polymer 
     250 H5          -7.1304   -22.8458   -15.8378 H5            1 Polymer 
     251 C0           0.0076   -24.1661   -20.4681 C0            1 Polymer 
     252 C0          -1.0620   -23.2787   -19.8378 C0            1 Polymer 
     253 C0          -2.5317   -23.6837   -20.0910 C0            1 Polymer 
     254 C0          -3.5087   -22.7507   -19.3599 C0            1 Polymer 
     255 C0          -5.0003   -23.1059   -19.5111 C0            1 Polymer 
     256 C0          -5.9018   -22.2447   -18.5965 C0            1 Polymer 
     257 C1          -7.3471   -22.6327   -18.5492 C1            1 Polymer 
     258 C1          -8.4661   -21.6791   -18.3632 C1            1 Polymer 
     259 S2          -9.9522   -22.5766   -18.8244 S2            1 Polymer 
     260 C1          -9.1322   -24.1448   -18.3365 C1            1 Polymer 
     261 C1          -7.7312   -23.7922   -18.0904 C1            1 Polymer 
     262 H3           1.0065   -23.7161   -20.2700 H3            1 Polymer 
     263 H3          -0.1392   -24.2548   -21.5601 H3            1 Polymer 
     264 H3           0.0331   -25.1672   -20.0010 H3            1 Polymer 
     265 H3          -0.9112   -22.2378   -20.1942 H3            1 Polymer 
     266 H3          -0.8590   -23.3540   -18.7685 H3            1 Polymer 
     267 H3          -2.7028   -24.6738   -19.6756 H3            1 Polymer 
     268 H3          -2.7444   -23.6982   -21.1743 H3            1 Polymer 
     269 H3          -3.3418   -21.6944   -19.6607 H3            1 Polymer 
     270 H3          -3.2722   -22.9118   -18.3080 H3            1 Polymer 
     271 H3          -5.3178   -23.0317   -20.5666 H3            1 Polymer 
     272 H3          -5.0934   -24.1348   -19.1712 H3            1 Polymer 
     273 H3          -5.5951   -22.5029   -17.6094 H3            1 Polymer 
     274 H3          -5.7886   -21.1614   -18.8102 H3            1 Polymer 
     275 H5          -7.0291   -24.4401   -17.6329 H5            1 Polymer 
     276 C0          -0.7436   -28.0801   -20.1888 C0            1 Polymer 
     277 C0          -1.8128   -27.4253   -19.3044 C0            1 Polymer 
     278 C0          -3.2555   -27.7158   -19.7632 C0            1 Polymer 
     279 C0          -4.3588   -27.0888   -18.8758 C0            1 Polymer 
     280 C0          -5.7834   -27.3412   -19.4602 C0            1 Polymer 
     281 C0          -6.9213   -26.5750   -18.7552 C0            1 Polymer 
     282 C1          -8.3716   -26.3943   -19.3194 C1            1 Polymer 
     283 C1          -9.0224   -25.0356   -19.5964 C1            1 Polymer 
     284 S2         -10.7184   -25.3052   -20.2276 S2            1 Polymer 
     285 C1         -10.3909   -27.0432   -20.4730 C1            1 Polymer 
     286 C1          -9.1709   -27.3941   -19.6280 C1            1 Polymer 
     287 H3           0.2662   -27.7936   -19.8257 H3            1 Polymer 
     288 H3          -0.8039   -27.7274   -21.2390 H3            1 Polymer 
     289 H3          -0.8333   -29.1856   -20.1554 H3            1 Polymer 
     290 H3          -1.6258   -26.3550   -19.3496 H3            1 Polymer 
     291 H3          -1.6661   -27.7467   -18.2580 H3            1 Polymer 
     292 H3          -3.4119   -28.8148   -19.8024 H3            1 Polymer 
     293 H3          -3.3531   -27.2638   -20.7678 H3            1 Polymer 
     294 H3          -4.1714   -26.0087   -18.8457 H3            1 Polymer 
     295 H3          -4.2901   -27.4673   -17.8385 H3            1 Polymer 
     296 H3          -5.7345   -26.9013   -20.4733 H3            1 Polymer 
     297 H3          -5.9846   -28.4304   -19.4559 H3            1 Polymer 
     298 H3          -6.9554   -26.8586   -17.6837 H3            1 Polymer 
     299 H3          -6.4677   -25.6333   -18.9702 H3            1 Polymer 
     300 H5          -8.8557   -28.4186   -19.4880 H5            1 Polymer 
     301 C0          -1.6062   -29.0251   -24.0555 C0            1 Polymer 
     302 C0          -2.6888   -28.3103   -23.2549 C0            1 Polymer 
     303 C0          -4.1200   -28.6857   -23.6551 C0            1 Polymer 
     304 C0          -5.1518   -27.9640   -22.7875 C0            1 Polymer 
     305 C0          -6.6084   -28.3437   -23.0883 C0            1 Polymer 
     306 C0          -7.5865   -27.7321   -22.0720 C0            1 Polymer 
     307 C1          -9.0283   -28.1476   -22.2012 C1            1 Polymer 
     308 C1         -10.1702   -27.2279   -22.0261 C1            1 Polymer 
     309 S2         -11.6269   -28.1087   -22.6850 S2            1 Polymer 
     310 C1         -10.7930   -29.7268   -22.4709 C1            1 Polymer 
     311 C1          -9.4015   -29.3901   -22.0882 C1            1 Polymer 
     312 H3          -0.6090   -28.6684   -23.7205 H3            1 Polymer 
     313 H3          -1.7173   -28.8222   -25.1400 H3            1 Polymer 
     314 H3          -1.6359   -30.1147   -23.8616 H3            1 Polymer 
     315 H3          -2.5506   -27.2136   -23.3635 H3            1 Polymer 
     316 H3          -2.5422   -28.6223   -22.2100 H3            1 Polymer 
     317 H3          -4.2330   -29.7569   -23.4388 H3            1 Polymer 
     318 H3          -4.2943   -28.4612   -24.7276 H3            1 Polymer 
     319 H3          -5.0250   -26.8630   -22.8700 H3            1 Polymer 
     320 H3          -4.9449   -28.3255   -21.7704 H3            1 Polymer 
     321 H3          -6.8844   -28.0657   -24.1264 H3            1 Polymer 
     322 H3          -6.6436   -29.4242   -22.9280 H3            1 Polymer 
     323 H3          -7.2934   -28.1753   -21.1295 H3            1 Polymer 
     324 H3          -7.5079   -26.6229   -22.0710 H3            1 Polymer 
     325 H5          -8.6733   -30.1132   -21.8244 H5            1 Polymer 
     326 C0          -2.3559   -32.7769   -25.3245 C0            1 Polymer 
     327 C0          -3.4548   -31.9995   -24.6198 C0            1 Polymer 
     328 C0          -4.8534   -32.5270   -24.9417 C0            1 Polymer 
     329 C0          -5.9241   -31.7899   -24.1626 C0            1 Polymer 
     330 C0          -7.3423   -32.2435   -24.5360 C0            1 Polymer 
     331 C0          -8.3322   -31.5902   -23.5919 C0            1 Polymer 
     332 C1          -9.8239   -31.6751   -23.8393 C1            1 Polymer 
     333 C1         -10.7247   -30.4607   -23.8616 C1            1 Polymer 
     334 S2         -12.3896   -31.0887   -24.3001 S2            1 Polymer 
     335 C1         -11.7792   -32.7846   -24.5974 C1            1 Polymer 
     336 C1         -10.4049   -32.8297   -24.0539 C1            1 Polymer 
     337 H3          -1.3693   -32.3503   -25.0428 H3            1 Polymer 
     338 H3          -2.4719   -32.6891   -26.4233 H3            1 Polymer 
     339 H3          -2.3858   -33.8433   -25.0208 H3            1 Polymer 
     340 H3          -3.3887   -30.9568   -24.9820 H3            1 Polymer 
     341 H3          -3.2756   -32.0493   -23.5216 H3            1 Polymer 
     342 H3          -4.9189   -33.6028   -24.6802 H3            1 Polymer 
     343 H3          -5.0492   -32.3534   -26.0103 H3            1 Polymer 
     344 H3          -5.8575   -30.7202   -24.4299 H3            1 Polymer 
     345 H3          -5.7402   -31.9379   -23.0749 H3            1 Polymer 
     346 H3          -7.5290   -31.8885   -25.5665 H3            1 Polymer 
     347 H3          -7.4380   -33.3407   -24.4336 H3            1 Polymer 
     348 H3          -8.1032   -31.9795   -22.5744 H3            1 Polymer 
     349 H3          -8.1170   -30.5319   -23.7711 H3            1 Polymer 
     350 H5          -9.8559   -33.7499   -23.9917 H5            1 Polymer 
     351 C0          -3.3581   -35.1342   -28.3860 C0            1 Polymer 
     352 C0          -4.5094   -34.4868   -27.6390 C0            1 Polymer 
     353 C0          -5.9062   -34.8641   -28.1720 C0            1 Polymer 
     354 C0          -6.9810   -34.2659   -27.2538 C0            1 Polymer 
     355 C0          -8.4535   -34.5364   -27.6583 C0            1 Polymer 
     356 C0          -9.3481   -34.1248   -26.4751 C0            1 Polymer 
     357 C1         -10.8614   -34.1805   -26.5871 C1            1 Polymer 
     358 C1         -11.7529   -33.0345   -26.1365 C1            1 Polymer 
     359 S2         -13.4486   -33.4480   -26.6498 S2            1 Polymer 
     360 C1         -12.8777   -35.0949   -27.0333 C1            1 Polymer 
     361 C1         -11.5109   -35.2473   -27.0111 C1            1 Polymer 
     362 H3          -2.3991   -34.8002   -27.9278 H3            1 Polymer 
     363 H3          -3.3692   -34.8279   -29.4493 H3            1 Polymer 
     364 H3          -3.4205   -36.2370   -28.2997 H3            1 Polymer 
     365 H3          -4.3771   -33.3910   -27.7314 H3            1 Polymer 
     366 H3          -4.4186   -34.8035   -26.5779 H3            1 Polymer 
     367 H3          -6.0126   -35.9689   -28.1634 H3            1 Polymer 
     368 H3          -6.0216   -34.4816   -29.2069 H3            1 Polymer 
     369 H3          -6.8385   -33.1677   -27.2122 H3            1 Polymer 
     370 H3          -6.7988   -34.6964   -26.2429 H3            1 Polymer 
     371 H3          -8.6985   -33.9596   -28.5746 H3            1 Polymer 
     372 H3          -8.6009   -35.6197   -27.8425 H3            1 Polymer 
     373 H3          -9.0496   -34.7939   -25.6409 H3            1 Polymer 
     374 H3          -9.1225   -33.0750   -26.2494 H3            1 Polymer 
     375 H5         -11.0161   -36.1581   -27.3173 H5            1 Polymer 
     376 H4           2.5201     5.3182     1.0264 H4            1 Polymer 
     377 H4         -13.5486   -35.8819   -27.3429 H4            1 Polymer 
@<TRIPOS>BOND
       1        2        1 1
       2       12        1 1
       3       13        1 1
       4       14        1 1
       5        3        2 1
       6       15        2 1
       7       16        2 1
       8        4        3 1
       9       17        3 1
      10       18        3 1
      11        5        4 1
      12       19        4 1
      13       20        4 1
      14        6        5 1
      15       21        5 1
      16       22        5 1
      17        7        6 1
      18       23        6 1
      19       24        6 1
      20        8        7 1
      21       11        7 1
      22        9        8 1
      23      376        8 1
      24       10        9 1
      25       11       10 1
      26       33       10 1
      27       25       11 1
      28       27       26 1
      29       37       26 1
      30       38       26 1
      31       39       26 1
      32       28       27 1
      33       40       27 1
      34       41       27 1
      35       29       28 1
      36       42       28 1
      37       43       28 1
      38       30       29 1
      39       44       29 1
      40       45       29 1
      41       31       30 1
      42       46       30 1
      43       47       30 1
      44       32       31 1
      45       48       31 1
      46       49       31 1
      47       33       32 1
      48       36       32 1
      49       34       33 1
      50       35       34 1
      51       36       35 1
      52       58       35 1
      53       50       36 1
      54       52       51 1
      55       62       51 1
      56       63       51 1
      57       64       51 1
      58       53       52 1
      59       65       52 1
      60       66       52 1
      61       54       53 1
      62       67       53 1
      63       68       53 1
      64       55       54 1
      65       69       54 1
      66       70       54 1
      67       56       55 1
      68       71       55 1
      69       72       55 1
      70       57       56 1
      71       73       56 1
      72       74       56 1
      73       58       57 1
      74       61       57 1
      75       59       58 1
      76       60       59 1
      77       61       60 1
      78       83       60 1
      79       75       61 1
      80       77       76 1
      81       87       76 1
      82       88       76 1
      83       89       76 1
      84       78       77 1
      85       90       77 1
      86       91       77 1
      87       79       78 1
      88       92       78 1
      89       93       78 1
      90       80       79 1
      91       94       79 1
      92       95       79 1
      93       81       80 1
      94       96       80 1
      95       97       80 1
      96       82       81 1
      97       98       81 1
      98       99       81 1
      99       83       82 1
     100       86       82 1
     101       84       83 1
     102       85       84 1
     103       86       85 1
     104      108       85 1
     105      100       86 1
     106      102      101 1
     107      112      101 1
     108      113      101 1
     109      114      101 1
     110      103      102 1
     111      115      102 1
     112      116      102 1
     113      104      103 1
     114      117      103 1
     115      118      103 1
     116      105      104 1
     117      119      104 1
     118      120      104 1
     119      106      105 1
     120      121      105 1
     121      122      105 1
     122      107      106 1
     123      123      106 1
     124      124      106 1
     125      108      107 1
     126      111      107 1
     127      109      108 1
     128      110      109 1
     129      111      110 1
     130      133      110 1
     131      125      111 1
     132      127      126 1
     133      137      126 1
     134      138      126 1
     135      139      126 1
     136      128      127 1
     137      140      127 1
     138      141      127 1
     139      129      128 1
     140      142      128 1
     141      143      128 1
     142      130      129 1
     143      144      129 1
     144      145      129 1
     145      131      130 1
     146      146      130 1
     147      147      130 1
     148      132      131 1
     149      148      131 1
     150      149      131 1
     151      133      132 1
     152      136      132 1
     153      134      133 1
     154      135      134 1
     155      136      135 1
     156      158      135 1
     157      150      136 1
     158      152      151 1
     159      162      151 1
     160      163      151 1
     161      164      151 1
     162      153      152 1
     163      165      152 1
     164      166      152 1
     165      154      153 1
     166      167      153 1
     167      168      153 1
     168      155      154 1
     169      169      154 1
     170      170      154 1
     171      156      155 1
     172      171      155 1
     173      172      155 1
     174      157      156 1
     175      173      156 1
     176      174      156 1
     177      158      157 1
     178      161      157 1
     179      159      158 1
     180      160      159 1
     181      161      160 1
     182      183      160 1
     183      175      161 1
     184      177      176 1
     185      187      176 1
     186      188      176 1
     187      189      176 1
     188      178      177 1
     189      190      177 1
     190      191      177 1
     191      179      178 1
     192      192      178 1
     193      193      178 1
     194      180      179 1
     195      194      179 1
     196      195      179 1
     197      181      180 1
     198      196      180 1
     199      197      180 1
     200      182      181 1
     201      198      181 1
     202      199      181 1
     203      183      182 1
     204      186      182 1
     205      184      183 1
     206      185      184 1
     207      186      185 1
     208      208      185 1
     209      200      186 1
     210      202      201 1
     211      212      201 1
     212      213      201 1
     213      214      201 1
     214      203      202 1
     215      215      202 1
     216      216      202 1
     217      204      203 1
     218      217      203 1
     219      218      203 1
     220      205      204 1
     221      219      204 1
     222      220      204 1
     223      206      205 1
     224      221      205 1
     225      222      205 1
     226      207      206 1
     227      223      206 1
     228      224      206 1
     229      208      207 1
     230      211      207 1
     231      209      208 1
     232      210      209 1
     233      211      210 1
     234      233      210 1
     235      225      211 1
     236      227      226 1
     237      237      226 1
     238      238      226 1
     239      239      226 1
     240      228      227 1
     241      240      227 1
     242      241      227 1
     243      229      228 1
     244      242      228 1
     245      243      228 1
     246      230      229 1
     247      244      229 1
     248      245      229 1
     249      231      230 1
     250      246      230 1
     251      247      230 1
     252      232      231 1
     253      248      231 1
     254      249      231 1
     255      233      232 1
     256      236      232 1
     257      234      233 1
     258      235      234 1
     259      236      235 1
     260      258      235 1
     261      250      236 1
     262      252      251 1
     263      262      251 1
     264      263      251 1
     265      264      251 1
     266      253      252 1
     267      265      252 1
     268      266      252 1
     269      254      253 1
     270      267      253 1
     271      268      253 1
     272      255      254 1
     273      269      254 1
     274      270      254 1
     275      256      255 1
     276      271      255 1
     277      272      255 1
     278      257      256 1
     279      273      256 1
     280      274      256 1
     281      258      257 1
     282      261      257 1
     283      259      258 1
     284      260      259 1
     285      261      260 1
     286      283      260 1
     287      275      261 1
     288      277      276 1
     289      287      276 1
     290      288      276 1
     291      289      276 1
     292      278      277 1
     293      290      277 1
     294      291      277 1
     295      279      278 1
     296      292      278 1
     297      293      278 1
     298      280      279 1
     299      294      279 1
     300      295      279 1
     301      281      280 1
     302      296      280 1
     303      297      280 1
     304      282      281 1
     305      298      281 1
     306      299      281 1
     307      283      282 1
     308      286      282 1
     309      284      283 1
     310      285      284 1
     311      286      285 1
     312      308      285 1
     313      300      286 1
     314      302      301 1
     315      312      301 1
     316      313      301 1
     317      314      301 1
     318      303      302 1
     319      315      302 1
     320      316      302 1
     321      304      303 1
     322      317      303 1
     323      318      303 1
     324      305      304 1
     325      319      304 1
     326      320      304 1
     327      306      305 1
     328      321      305 1
     329      322      305 1
     330      307      306 1
     331      323      306 1
     332      324      306 1
     333      308      307 1
     334      311      307 1
     335      309      308 1
     336      310      309 1
     337      311      310 1
     338      333      310 1
     339      325      311 1
     340      327      326 1
     341      337      326 1
     342      338      326 1
     343      339      326 1
     344      328      327 1
     345      340      327 1
     346      341      327 1
     347      329      328 1
     348      342      328 1
     349      343      328 1
     350      330      329 1
     351      344      329 1
     352      345      329 1
     353      331      330 1
     354      346      330 1
     355      347      330 1
     356      332      331 1
     357      348      331 1
     358      349      331 1
     359      333      332 1
     360      336      332 1
     361      334      333 1
     362      335      334 1
     363      336      335 1
     364      358      335 1
     365      350      336 1
     366      352      351 1
     367      362      351 1
     368      363      351 1
     369      364      351 1
     370      353      352 1
     371      365      352 1
     372      366      352 1
     373      354      353 1
     374      367      353 1
     375      368      353 1
     376      355      354 1
     377      369      354 1
     378      370      354 1
     379      356      355 1
     380      371      355 1
     381      372      355 1
     382      357      356 1
     383      373      356 1
     384      374      356 1
     385      358      357 1
     386      361      357 1
     387      359      358 1
     388      360      359 1
     389      361      360 1
     390      377      360 1
     391      375      361 1
@<TRIPOS>SUBSTRUCTURE
       1 Polymer         1 RESIDUE    0 **** ROOT      0
