@<TRIPOS>MOLECULE
Compound
124 128 1 0 1
SMALL
NO_CHARGES
@<TRIPOS>CRYSIN
   27.2798    28.2329     9.0180    90.0000    90.0000    90.0000  1  1
@<TRIPOS>ATOM
       1 C0           0.6092     2.9067    -0.2176 C0            1 Compound
       2 C0          -0.7304     3.2171    -0.3396 C0            1 Compound
       3 C0          -1.4445     2.0732    -0.4957 C0            1 Compound
       4 C0          -0.6989     1.0101    -0.4628 C0            1 Compound
       5 C0           0.6647     1.3872    -0.1269 C0            1 Compound
       6 C0           0.5262     0.8149     1.2611 C0            1 Compound
       7 C0          -0.3595    -0.2664     1.3331 C0            1 Compound
       8 S1          -1.1950    -0.6651    -0.2124 S1            1 Compound
       9 S1          -3.0818     2.2821    -0.5869 S1            1 Compound
      10 C0          -2.9593     3.9646    -0.4519 C0            1 Compound
      11 C0          -1.5943     4.3458    -0.3562 C0            1 Compound
      12 C0          -4.1365     4.8707    -0.3604 C0            1 Compound
      13 N2          -3.9260     6.2114    -0.2005 N2            1 Compound
      14 C0          -4.9436     7.1101    -0.0662 C0            1 Compound
      15 C0          -6.2774     6.6939    -0.0690 C0            1 Compound
      16 C0          -6.5417     5.3354    -0.2280 C0            1 Compound
      17 N2          -7.7952     4.8175    -0.2397 N2            1 Compound
      18 S1          -7.5050     3.2039    -0.4312 S1            1 Compound
      19 N2          -5.8563     3.1095    -0.5029 N2            1 Compound
      20 C0          -5.4739     4.4078    -0.3733 C0            1 Compound
      21 C0           1.9285     3.7795    -0.2002 C0            1 Compound
      22 C3           3.0843     3.2575     0.7813 C3            1 Compound
      23 C3           4.1530     2.0227     0.7705 C3            1 Compound
      24 C3           5.5179     2.0638    -0.0585 C3            1 Compound
      25 C3           6.5311     1.0250     0.5799 C3            1 Compound
      26 C3           8.0815     1.1066     0.5671 C3            1 Compound
      27 C3           8.9221     0.3774    -0.5149 C3            1 Compound
      28 C3          10.3215     0.0754     0.1074 C3            1 Compound
      29 C3          11.3419    -0.6907    -0.7539 C3            1 Compound
      30 C3          12.5587    -1.0657     0.1203 C3            1 Compound
      31 C3          13.6570    -1.7947    -0.6541 C3            1 Compound
      32 C3           3.6636     0.5489     0.9787 C3            1 Compound
      33 C3           3.3193    -0.3737    -0.2220 C3            1 Compound
      34 C3           2.8909    -1.7417     0.3644 C3            1 Compound
      35 C3           2.3428    -2.7594    -0.6437 C3            1 Compound
      36 C3           1.9274    -4.0388     0.1125 C3            1 Compound
      37 C3           1.2910    -5.0821    -0.7988 C3            1 Compound
      38 C3           1.5780     5.3347    -0.0596 C3            1 Compound
      39 C3           2.4702     6.4609    -0.7119 C3            1 Compound
      40 C3           3.8728     6.6810    -0.0485 C3            1 Compound
      41 C3           4.6748     7.8534    -0.6763 C3            1 Compound
      42 C3           5.9505     8.2347     0.0815 C3            1 Compound
      43 C3           7.1402     7.3285    -0.2223 C3            1 Compound
      44 C3           8.3817     7.8458     0.5190 C3            1 Compound
      45 C3           9.6445     7.1319     0.0572 C3            1 Compound
      46 C3           1.6785     7.8419    -0.9315 C3            1 Compound
      47 C3           1.6171     8.9101     0.2272 C3            1 Compound
      48 C3           1.9108    10.3841    -0.2508 C3            1 Compound
      49 C3           0.7806    11.4043    -0.5919 C3            1 Compound
      50 C3           0.8385    12.6398     0.3581 C3            1 Compound
      51 C3           0.0921    13.8832    -0.1681 C3            1 Compound
      52 C3           0.3646    15.1125     0.7310 C3            1 Compound
      53 C3          -0.2102    16.4012     0.1399 C3            1 Compound
      54 H4           1.0059     1.2069     2.1443 H4            1 Compound
      55 H5          -0.5836    -0.7709     2.2622 H5            1 Compound
      56 H4          -1.3115     5.3770    -0.2291 H4            1 Compound
      57 H5          -4.7165     8.1573     0.0526 H5            1 Compound
      58 H4          -7.0845     7.4009     0.0396 H4            1 Compound
      59 H6           3.7485     4.1222     0.9143 H6            1 Compound
      60 H6           2.5539     3.1789     1.7552 H6            1 Compound
      61 H6           4.5396     2.2359     1.7941 H6            1 Compound
      62 H6           5.3798     1.8769    -1.1449 H6            1 Compound
      63 H6           5.9432     3.0814     0.0720 H6            1 Compound
      64 H6           6.3614     1.1649     1.6695 H6            1 Compound
      65 H6           6.2434    -0.0198     0.3347 H6            1 Compound
      66 H6           8.3233     0.5258     1.4890 H6            1 Compound
      67 H6           8.4467     2.1364     0.7593 H6            1 Compound
      68 H6           8.9919     0.9827    -1.4425 H6            1 Compound
      69 H6           8.4617    -0.6059    -0.7569 H6            1 Compound
      70 H6          10.1473    -0.5575     1.0087 H6            1 Compound
      71 H6          10.7928     1.0257     0.4445 H6            1 Compound
      72 H6          11.6557    -0.0577    -1.6067 H6            1 Compound
      73 H6          10.8837    -1.6293    -1.1412 H6            1 Compound
      74 H6          12.2267    -1.7254     0.9510 H6            1 Compound
      75 H6          13.0035    -0.1495     0.5684 H6            1 Compound
      76 H6          14.0648    -1.1446    -1.4490 H6            1 Compound
      77 H6          13.2662    -2.7356    -1.0928 H6            1 Compound
      78 H6          14.4846    -2.0565     0.0483 H6            1 Compound
      79 H6           2.8916     0.5553     1.7366 H6            1 Compound
      80 H6           4.4439    -0.0038     1.5363 H6            1 Compound
      81 H6           2.5166     0.0381    -0.8476 H6            1 Compound
      82 H6           4.1976    -0.5102    -0.8881 H6            1 Compound
      83 H6           2.0866    -1.5665     1.1089 H6            1 Compound
      84 H6           3.7596    -2.1902     0.8960 H6            1 Compound
      85 H6           3.1116    -3.0027    -1.4084 H6            1 Compound
      86 H6           1.4518    -2.3266    -1.1493 H6            1 Compound
      87 H6           1.1870    -3.7814     0.9026 H6            1 Compound
      88 H6           2.8204    -4.4871     0.6018 H6            1 Compound
      89 H6           2.0021    -5.3954    -1.5908 H6            1 Compound
      90 H6           0.3686    -4.6750    -1.2642 H6            1 Compound
      91 H6           1.0144    -5.9744    -0.1954 H6            1 Compound
      92 H6           1.2991     5.5848     0.9875 H6            1 Compound
      93 H6           0.6938     5.4459    -0.6907 H6            1 Compound
      94 H6           2.6548     6.0922    -1.7455 H6            1 Compound
      95 H6           4.4915     5.7727    -0.1407 H6            1 Compound
      96 H6           3.7204     6.8933     1.0322 H6            1 Compound
      97 H6           4.8809     7.6781    -1.7537 H6            1 Compound
      98 H6           4.0823     8.7709    -0.6138 H6            1 Compound
      99 H6           6.2400     9.2544    -0.2626 H6            1 Compound
     100 H6           5.7418     8.2985     1.1730 H6            1 Compound
     101 H6           6.9312     6.2766     0.0657 H6            1 Compound
     102 H6           7.3241     7.3752    -1.3188 H6            1 Compound
     103 H6           8.2424     7.7072     1.6141 H6            1 Compound
     104 H6           8.5223     8.9314     0.3178 H6            1 Compound
     105 H6          10.5172     7.5263     0.6193 H6            1 Compound
     106 H6           9.8088     7.3273    -1.0250 H6            1 Compound
     107 H6           9.5625     6.0389     0.2269 H6            1 Compound
     108 H6           0.6717     7.7015    -1.3794 H6            1 Compound
     109 H6           2.2501     8.3121    -1.7558 H6            1 Compound
     110 H6           2.4873     8.7034     0.8693 H6            1 Compound
     111 H6           0.7636     8.8117     0.9269 H6            1 Compound
     112 H6           2.6114    10.3666    -1.1141 H6            1 Compound
     113 H6           2.5523    10.8515     0.5268 H6            1 Compound
     114 H6           1.0147    11.8011    -1.6059 H6            1 Compound
     115 H6          -0.2287    10.9458    -0.6529 H6            1 Compound
     116 H6           0.4820    12.3587     1.3734 H6            1 Compound
     117 H6           1.9017    12.9573     0.4394 H6            1 Compound
     118 H6           0.4810    14.1183    -1.1824 H6            1 Compound
     119 H6          -1.0003    13.6934    -0.2380 H6            1 Compound
     120 H6          -0.0623    14.9474     1.7440 H6            1 Compound
     121 H6           1.4624    15.2627     0.8334 H6            1 Compound
     122 H6           0.0294    17.2586     0.8068 H6            1 Compound
     123 H6          -1.3119    16.3309     0.0326 H6            1 Compound
     124 H6           0.2435    16.6048    -0.8545 H6            1 Compound
@<TRIPOS>BOND
       1        2        1 1
       2       21        1 1
       3        5        1 1
       4        3        2 1
       5       11        2 1
       6        4        3 1
       7        9        3 1
       8        5        4 1
       9        8        4 1
      10        6        5 1
      11        7        6 1
      12       54        6 1
      13        8        7 1
      14       55        7 1
      15       10        9 1
      16       11       10 1
      17       12       10 1
      18       56       11 1
      19       13       12 1
      20       20       12 1
      21       14       13 1
      22       15       14 1
      23       57       14 1
      24       16       15 1
      25       58       15 1
      26       17       16 1
      27       20       16 1
      28       18       17 1
      29       19       18 1
      30       20       19 1
      31       22       21 1
      32       38       21 1
      33       23       22 1
      34       59       22 1
      35       60       22 1
      36       24       23 1
      37       32       23 1
      38       61       23 1
      39       25       24 1
      40       62       24 1
      41       63       24 1
      42       26       25 1
      43       64       25 1
      44       65       25 1
      45       27       26 1
      46       66       26 1
      47       67       26 1
      48       28       27 1
      49       68       27 1
      50       69       27 1
      51       29       28 1
      52       70       28 1
      53       71       28 1
      54       30       29 1
      55       72       29 1
      56       73       29 1
      57       31       30 1
      58       74       30 1
      59       75       30 1
      60       76       31 1
      61       77       31 1
      62       78       31 1
      63       33       32 1
      64       79       32 1
      65       80       32 1
      66       34       33 1
      67       81       33 1
      68       82       33 1
      69       35       34 1
      70       83       34 1
      71       84       34 1
      72       36       35 1
      73       85       35 1
      74       86       35 1
      75       37       36 1
      76       87       36 1
      77       88       36 1
      78       89       37 1
      79       90       37 1
      80       91       37 1
      81       39       38 1
      82       92       38 1
      83       93       38 1
      84       40       39 1
      85       46       39 1
      86       94       39 1
      87       41       40 1
      88       95       40 1
      89       96       40 1
      90       42       41 1
      91       97       41 1
      92       98       41 1
      93       43       42 1
      94       99       42 1
      95      100       42 1
      96       44       43 1
      97      101       43 1
      98      102       43 1
      99       45       44 1
     100      103       44 1
     101      104       44 1
     102      105       45 1
     103      106       45 1
     104      107       45 1
     105       47       46 1
     106      108       46 1
     107      109       46 1
     108       48       47 1
     109      110       47 1
     110      111       47 1
     111       49       48 1
     112      112       48 1
     113      113       48 1
     114       50       49 1
     115      114       49 1
     116      115       49 1
     117       51       50 1
     118      116       50 1
     119      117       50 1
     120       52       51 1
     121      118       51 1
     122      119       51 1
     123       53       52 1
     124      120       52 1
     125      121       52 1
     126      122       53 1
     127      123       53 1
     128      124       53 1
@<TRIPOS>SUBSTRUCTURE
       1 Compound        1 RESIDUE    0 **** ROOT      0
