@<TRIPOS>MOLECULE
Compound
147 151 1 0 1
SMALL
NO_CHARGES
@<TRIPOS>CRYSIN
   32.2551    29.5275     9.5059    90.0000    90.0000    90.0000  1  1
@<TRIPOS>ATOM
       1 C0           1.0289     3.2643     0.2024 C0            1 Compound
       2 C1          -0.2360     3.0200    -0.2554 C1            1 Compound
       3 C1          -0.9389     2.1844     0.5363 C1            1 Compound
       4 C1          -0.2330     1.7346     1.5221 C1            1 Compound
       5 C1           1.1391     2.2830     1.4654 C1            1 Compound
       6 C1           1.7873     0.8954     1.2122 C1            1 Compound
       7 C1           1.0145    -0.2119     1.4516 C1            1 Compound
       8 S2          -0.5506     0.1838     2.2899 S2            1 Compound
       9 C1           1.3829    -1.6257     0.9852 C1            1 Compound
      10 C1           2.6839    -1.9417     0.5407 C1            1 Compound
      11 N3           3.0124    -3.1890     0.0665 N3            1 Compound
      12 C1           2.1111    -4.2006    -0.0126 C1            1 Compound
      13 C1           0.8124    -3.9689     0.3980 C1            1 Compound
      14 C1           0.4317    -2.6858     0.9067 C1            1 Compound
      15 N3          -0.8752    -2.5798     1.2498 N3            1 Compound
      16 S2          -1.4726    -4.0859     0.9132 S2            1 Compound
      17 N3          -0.1658    -4.9089     0.3336 N3            1 Compound
      18 S2          -2.4560     1.8020    -0.0584 S2            1 Compound
      19 C1          -2.2376     2.7835    -1.4181 C1            1 Compound
      20 C1          -0.9500     3.3433    -1.4107 C1            1 Compound
      21 C0           1.1758     4.8958     0.3402 C0            1 Compound
      22 C0           0.2044     6.2126     0.5009 C0            1 Compound
      23 C0           1.1254     7.5481     0.5651 C0            1 Compound
      24 C0           0.5078     9.0178     0.5006 C0            1 Compound
      25 C0           1.5624    10.1845     0.6837 C0            1 Compound
      26 C0           1.0965    11.6581     0.3278 C0            1 Compound
      27 C0           1.9432    12.7643     1.0600 C0            1 Compound
      28 C0           1.6952    14.2847     0.7195 C0            1 Compound
      29 C0           2.6526    14.8495    -0.3642 C0            1 Compound
      30 C0           2.6098    16.3804    -0.6499 C0            1 Compound
      31 C0           3.0484    17.2770     0.5311 C0            1 Compound
      32 C0           3.2416    18.7396     0.0982 C0            1 Compound
      33 C0          -0.9822     6.4671    -0.5188 C0            1 Compound
      34 C0          -2.2671     6.8521     0.2600 C0            1 Compound
      35 C0          -3.6318     7.0002    -0.4905 C0            1 Compound
      36 C0          -4.6482     7.5404     0.5596 C0            1 Compound
      37 C0          -6.2158     7.5099     0.2619 C0            1 Compound
      38 C0          -7.6445     7.8999     0.8658 C0            1 Compound
      39 C0          -8.8888     7.3627     0.1341 C0            1 Compound
      40 C0          -9.1945     8.0326    -1.1961 C0            1 Compound
      41 C0           2.1937     2.9189    -0.8340 C0            1 Compound
      42 C0           3.7622     3.1371    -0.3431 C0            1 Compound
      43 C0           4.8335     2.2675    -1.1293 C0            1 Compound
      44 C0           6.3837     2.6524    -0.9777 C0            1 Compound
      45 C0           7.5361     1.7276    -0.3742 C0            1 Compound
      46 C0           8.9361     2.4097    -0.6973 C0            1 Compound
      47 C0          10.3597     1.7263    -0.8375 C0            1 Compound
      48 C0          11.3213     1.3843     0.3504 C0            1 Compound
      49 C0          12.8300     1.4459    -0.1281 C0            1 Compound
      50 C0          13.8822     1.0947     0.9584 C0            1 Compound
      51 C0          15.3410     1.5474     0.6454 C0            1 Compound
      52 C0          16.0667     0.8117    -0.4854 C0            1 Compound
      53 C0           4.2240     4.6334    -0.3998 C0            1 Compound
      54 C0           4.6016     6.0173    -1.0059 C0            1 Compound
      55 C0           5.3229     6.9011     0.0177 C0            1 Compound
      56 C0           5.2667     8.3767    -0.4017 C0            1 Compound
      57 C0           5.9145     9.2620     0.6708 C0            1 Compound
      58 C0           5.5880    10.7505     0.5060 C0            1 Compound
      59 C0           6.1402    11.3807    -0.7758 C0            1 Compound
      60 C0           5.7448    12.8504    -0.8422 C0            1 Compound
      61 H4           2.7486     0.8068     0.7398 H4            1 Compound
      62 H5           3.4804    -1.2115     0.5451 H5            1 Compound
      63 H5           2.4089    -5.1699    -0.4040 H5            1 Compound
      64 H5          -2.9807     2.9158    -2.1917 H5            1 Compound
      65 H4          -0.5693     3.9530    -2.2160 H4            1 Compound
      66 H6           1.7379     4.9774     1.2953 H6            1 Compound
      67 H6           1.7799     5.2435    -0.5070 H6            1 Compound
      68 H6          -0.2674     6.0740     1.4980 H6            1 Compound
      69 H6           1.7991     7.5191    -0.3161 H6            1 Compound
      70 H6           1.7689     7.4673     1.4669 H6            1 Compound
      71 H6           0.0258     9.1561    -0.4878 H6            1 Compound
      72 H6          -0.2585     9.1465     1.2913 H6            1 Compound
      73 H6           2.4464     9.9902     0.0470 H6            1 Compound
      74 H6           1.8902    10.1441     1.7438 H6            1 Compound
      75 H6           0.0454    11.8090     0.6520 H6            1 Compound
      76 H6           1.1358    11.7869    -0.7767 H6            1 Compound
      77 H6           3.0308    12.5709     0.9875 H6            1 Compound
      78 H6           1.6733    12.6379     2.1303 H6            1 Compound
      79 H6           0.6264    14.4805     0.4864 H6            1 Compound
      80 H6           1.9457    14.8617     1.6356 H6            1 Compound
      81 H6           3.6903    14.6506    -0.0313 H6            1 Compound
      82 H6           2.4669    14.3137    -1.3180 H6            1 Compound
      83 H6           1.6078    16.6928    -1.0129 H6            1 Compound
      84 H6           3.3390    16.5607    -1.4728 H6            1 Compound
      85 H6           4.0243    16.9253     0.9304 H6            1 Compound
      86 H6           2.2922    17.2350     1.3424 H6            1 Compound
      87 H6           2.3039    19.1667    -0.3149 H6            1 Compound
      88 H6           4.0403    18.8156    -0.6728 H6            1 Compound
      89 H6           3.5563    19.3576     0.9681 H6            1 Compound
      90 H6          -1.2620     5.6026    -1.0740 H6            1 Compound
      91 H6          -0.7179     7.2196    -1.2908 H6            1 Compound
      92 H6          -2.4380     6.0362     1.0020 H6            1 Compound
      93 H6          -2.0540     7.7856     0.8128 H6            1 Compound
      94 H6          -3.9397     6.0051    -0.8838 H6            1 Compound
      95 H6          -3.5589     7.7137    -1.3397 H6            1 Compound
      96 H6          -4.4666     6.8872     1.4661 H6            1 Compound
      97 H6          -4.2568     8.5814     0.7644 H6            1 Compound
      98 H6          -6.3502     6.4103     0.1682 H6            1 Compound
      99 H6          -6.0688     7.9968     1.2435 H6            1 Compound
     100 H6          -7.7886     9.0130     0.9669 H6            1 Compound
     101 H6          -7.8022     7.4309     1.8889 H6            1 Compound
     102 H6          -8.8172     6.2609     0.0119 H6            1 Compound
     103 H6          -9.7669     7.5678     0.7913 H6            1 Compound
     104 H6          -9.3257     9.1265    -1.0504 H6            1 Compound
     105 H6          -8.3929     7.8363    -1.9327 H6            1 Compound
     106 H6         -10.1554     7.6236    -1.5822 H6            1 Compound
     107 H6           2.0149     3.4230    -1.8098 H6            1 Compound
     108 H6           2.0784     1.8479    -1.0975 H6            1 Compound
     109 H6           3.8688     2.7937     0.7094 H6            1 Compound
     110 H6           4.5812     2.4777    -2.1919 H6            1 Compound
     111 H6           4.6730     1.1753    -1.0038 H6            1 Compound
     112 H6           6.6880     2.7339    -2.0421 H6            1 Compound
     113 H6           6.5047     3.6781    -0.5790 H6            1 Compound
     114 H6           7.4219     1.5653     0.7213 H6            1 Compound
     115 H6           7.4830     0.7449    -0.8860 H6            1 Compound
     116 H6           8.8072     2.7475    -1.7468 H6            1 Compound
     117 H6           9.0367     3.3320    -0.0853 H6            1 Compound
     118 H6          10.9186     2.5232    -1.3777 H6            1 Compound
     119 H6          10.3156     0.8612    -1.5333 H6            1 Compound
     120 H6          11.0663     0.3894     0.7745 H6            1 Compound
     121 H6          11.2176     2.1491     1.1490 H6            1 Compound
     122 H6          13.0037     0.7998    -1.0155 H6            1 Compound
     123 H6          13.0199     2.4999    -0.4328 H6            1 Compound
     124 H6          13.8606     0.0057     1.1808 H6            1 Compound
     125 H6          13.6030     1.6428     1.8812 H6            1 Compound
     126 H6          15.3520     2.6377     0.4274 H6            1 Compound
     127 H6          15.9541     1.3883     1.5608 H6            1 Compound
     128 H6          16.1632    -0.2696    -0.2527 H6            1 Compound
     129 H6          17.0997     1.2244    -0.5781 H6            1 Compound
     130 H6          15.5566     0.9485    -1.4590 H6            1 Compound
     131 H6           3.6702     4.9998     0.4729 H6            1 Compound
     132 H6           3.7599     4.5636    -1.3992 H6            1 Compound
     133 H6           5.2533     5.9354    -1.9118 H6            1 Compound
     134 H6           3.6652     6.5644    -1.3017 H6            1 Compound
     135 H6           4.7944     6.8371     0.9940 H6            1 Compound
     136 H6           6.3661     6.5431     0.1551 H6            1 Compound
     137 H6           5.7422     8.5346    -1.3932 H6            1 Compound
     138 H6           4.1937     8.6506    -0.4822 H6            1 Compound
     139 H6           7.0122     9.0942     0.6871 H6            1 Compound
     140 H6           5.5000     8.9719     1.6612 H6            1 Compound
     141 H6           6.0126    11.2916     1.3794 H6            1 Compound
     142 H6           4.4883    10.8731     0.5364 H6            1 Compound
     143 H6           7.2467    11.2968    -0.7826 H6            1 Compound
     144 H6           5.7267    10.8733    -1.6729 H6            1 Compound
     145 H6           6.1053    13.3981     0.0567 H6            1 Compound
     146 H6           4.6419    12.9111    -0.9014 H6            1 Compound
     147 H6           6.1700    13.3286    -1.7477 H6            1 Compound
@<TRIPOS>BOND
       1        2        1 1
       2       21        1 1
       3       41        1 1
       4        5        1 1
       5        3        2 1
       6       20        2 1
       7        4        3 1
       8       18        3 1
       9        5        4 1
      10        8        4 1
      11        6        5 1
      12        7        6 1
      13       61        6 1
      14        8        7 1
      15        9        7 1
      16       10        9 1
      17       14        9 1
      18       11       10 1
      19       62       10 1
      20       12       11 1
      21       13       12 1
      22       63       12 1
      23       14       13 1
      24       17       13 1
      25       15       14 1
      26       16       15 1
      27       17       16 1
      28       19       18 1
      29       20       19 1
      30       64       19 1
      31       65       20 1
      32       22       21 1
      33       66       21 1
      34       67       21 1
      35       23       22 1
      36       33       22 1
      37       68       22 1
      38       24       23 1
      39       69       23 1
      40       70       23 1
      41       25       24 1
      42       71       24 1
      43       72       24 1
      44       26       25 1
      45       73       25 1
      46       74       25 1
      47       27       26 1
      48       75       26 1
      49       76       26 1
      50       28       27 1
      51       77       27 1
      52       78       27 1
      53       29       28 1
      54       79       28 1
      55       80       28 1
      56       30       29 1
      57       81       29 1
      58       82       29 1
      59       31       30 1
      60       83       30 1
      61       84       30 1
      62       32       31 1
      63       85       31 1
      64       86       31 1
      65       87       32 1
      66       88       32 1
      67       89       32 1
      68       34       33 1
      69       90       33 1
      70       91       33 1
      71       35       34 1
      72       92       34 1
      73       93       34 1
      74       36       35 1
      75       94       35 1
      76       95       35 1
      77       37       36 1
      78       96       36 1
      79       97       36 1
      80       38       37 1
      81       98       37 1
      82       99       37 1
      83       39       38 1
      84      100       38 1
      85      101       38 1
      86       40       39 1
      87      102       39 1
      88      103       39 1
      89      104       40 1
      90      105       40 1
      91      106       40 1
      92       42       41 1
      93      107       41 1
      94      108       41 1
      95       43       42 1
      96       53       42 1
      97      109       42 1
      98       44       43 1
      99      110       43 1
     100      111       43 1
     101       45       44 1
     102      112       44 1
     103      113       44 1
     104       46       45 1
     105      114       45 1
     106      115       45 1
     107       47       46 1
     108      116       46 1
     109      117       46 1
     110       48       47 1
     111      118       47 1
     112      119       47 1
     113       49       48 1
     114      120       48 1
     115      121       48 1
     116       50       49 1
     117      122       49 1
     118      123       49 1
     119       51       50 1
     120      124       50 1
     121      125       50 1
     122       52       51 1
     123      126       51 1
     124      127       51 1
     125      128       52 1
     126      129       52 1
     127      130       52 1
     128       54       53 1
     129      131       53 1
     130      132       53 1
     131       55       54 1
     132      133       54 1
     133      134       54 1
     134       56       55 1
     135      135       55 1
     136      136       55 1
     137       57       56 1
     138      137       56 1
     139      138       56 1
     140       58       57 1
     141      139       57 1
     142      140       57 1
     143       59       58 1
     144      141       58 1
     145      142       58 1
     146       60       59 1
     147      143       59 1
     148      144       59 1
     149      145       60 1
     150      146       60 1
     151      147       60 1
@<TRIPOS>SUBSTRUCTURE
       1 Compound        1 RESIDUE    0 **** ROOT      0
