@<TRIPOS>MOLECULE
Compound
147 151 1 0 1
SMALL
NO_CHARGES
@<TRIPOS>CRYSIN
   33.7264    30.5082     9.4190    90.0000    90.0000    90.0000  1  1
@<TRIPOS>ATOM
       1 C0           0.9208     3.0865     0.0945 C0            1 Compound
       2 C1          -0.3004     2.9015    -0.5100 C1            1 Compound
       3 C1          -1.0959     2.0180     0.1391 C1            1 Compound
       4 C1          -0.4939     1.4532     1.1323 C1            1 Compound
       5 C1           0.8996     1.9367     1.2201 C1            1 Compound
       6 C1           1.4775     0.5330     0.8985 C1            1 Compound
       7 C1           0.6487    -0.5615     1.0845 C1            1 Compound
       8 S2          -0.9551    -0.1079     1.8132 S2            1 Compound
       9 C1           0.9950    -2.0121     0.7104 C1            1 Compound
      10 C1           2.3311    -2.3855     0.4113 C1            1 Compound
      11 N3           2.6688    -3.6623     0.0612 N3            1 Compound
      12 C1           1.7607    -4.6679    -0.0411 C1            1 Compound
      13 C1           0.4320    -4.3911     0.2265 C1            1 Compound
      14 C1           0.0330    -3.0694     0.6100 C1            1 Compound
      15 N3          -1.2996    -2.9278     0.8340 N3            1 Compound
      16 S2          -1.8897    -4.4516     0.5540 S2            1 Compound
      17 N3          -0.5522    -5.3248     0.1418 N3            1 Compound
      18 S2          -2.5785     1.7539    -0.5896 S2            1 Compound
      19 C1          -2.2314     2.8575    -1.8230 C1            1 Compound
      20 C1          -0.9268     3.3731    -1.6757 C1            1 Compound
      21 C0           0.8321     4.6591     0.6479 C0            1 Compound
      22 C0           0.1683     6.0751     0.0704 C0            1 Compound
      23 C0           0.7576     7.3996     0.8593 C0            1 Compound
      24 C0           0.8654     8.8095     0.0787 C0            1 Compound
      25 C0           1.3704    10.1644     0.8040 C0            1 Compound
      26 C0           1.4404    11.4138    -0.2099 C0            1 Compound
      27 C0           1.6129    12.9679     0.2238 C0            1 Compound
      28 C0           1.7442    14.5219     0.6952 C0            1 Compound
      29 C0           2.0103    15.6994    -0.3580 C0            1 Compound
      30 C0           3.2451    16.6767    -0.4469 C0            1 Compound
      31 C0           3.3477    17.7999     0.6305 C0            1 Compound
      32 C0           4.0923    19.0573     0.1100 C0            1 Compound
      33 C0          -1.4066     6.0202     0.1624 C0            1 Compound
      34 C0          -2.3835     7.1140    -0.4010 C0            1 Compound
      35 C0          -3.6913     7.1538     0.4479 C0            1 Compound
      36 C0          -4.9473     7.5539    -0.3521 C0            1 Compound
      37 C0          -6.2153     7.5566     0.5321 C0            1 Compound
      38 C0          -7.4946     7.7274    -0.3097 C0            1 Compound
      39 C0          -8.7474     7.8149     0.5782 C0            1 Compound
      40 C0         -10.0217     7.9588    -0.2551 C0            1 Compound
      41 C0           2.1940     3.0221    -0.9106 C0            1 Compound
      42 C0           3.8301     3.2994    -0.6942 C0            1 Compound
      43 C0           4.7462     2.2495     0.1148 C0            1 Compound
      44 C0           6.3975     2.4073     0.1580 C0            1 Compound
      45 C0           7.8619     1.6544     0.3224 C0            1 Compound
      46 C0           9.2185     2.2753    -0.2749 C0            1 Compound
      47 C0          10.5482     1.4490     0.0926 C0            1 Compound
      48 C0          11.9613     1.9475    -0.4575 C0            1 Compound
      49 C0          13.1500     0.9520    -0.1369 C0            1 Compound
      50 C0          14.6129     1.3738    -0.5660 C0            1 Compound
      51 C0          15.6771     1.0173     0.5209 C0            1 Compound
      52 C0          17.1439     1.1409     0.0632 C0            1 Compound
      53 C0           3.9666     4.7762    -0.2351 C0            1 Compound
      54 C0           5.1564     5.7159    -0.4088 C0            1 Compound
      55 C0           4.6577     7.1999    -0.1995 C0            1 Compound
      56 C0           5.6763     8.1853    -0.7819 C0            1 Compound
      57 C0           5.3280     9.7015    -0.8468 C0            1 Compound
      58 C0           5.5088    10.4774     0.4785 C0            1 Compound
      59 C0           6.0296    11.9271     0.2734 C0            1 Compound
      60 C0           5.0607    12.9306    -0.3456 C0            1 Compound
      61 H4           2.4676     0.4285     0.4951 H4            1 Compound
      62 H5           3.1256    -1.6632     0.4670 H5            1 Compound
      63 H5           2.0813    -5.6656    -0.3317 H5            1 Compound
      64 H5          -2.9333     3.1117    -2.6057 H5            1 Compound
      65 H4          -0.4968     4.0831    -2.3604 H4            1 Compound
      66 H6           0.6742     4.6180     1.7470 H6            1 Compound
      67 H6           1.8021     5.0213     0.5942 H6            1 Compound
      68 H6           0.4903     6.1758    -0.9884 H6            1 Compound
      69 H6           1.8072     7.1901     1.1551 H6            1 Compound
      70 H6           0.1964     7.5233     1.8133 H6            1 Compound
      71 H6          -0.1210     9.0606    -0.3311 H6            1 Compound
      72 H6           1.5495     8.6343    -0.7763 H6            1 Compound
      73 H6           2.3553    10.0236     1.2898 H6            1 Compound
      74 H6           0.6322    10.4116     1.6007 H6            1 Compound
      75 H6           0.4547    11.3582    -0.7175 H6            1 Compound
      76 H6           2.1996    11.1896    -0.9841 H6            1 Compound
      77 H6           1.2207    13.2974    -0.7684 H6            1 Compound
      78 H6           0.8353    12.7804     0.9834 H6            1 Compound
      79 H6           0.6988    14.7947     1.0094 H6            1 Compound
      80 H6           2.3050    14.6426     1.6463 H6            1 Compound
      81 H6           1.8553    15.2891    -1.3741 H6            1 Compound
      82 H6           1.1711    16.4263    -0.2425 H6            1 Compound
      83 H6           3.0488    17.2372    -1.3913 H6            1 Compound
      84 H6           4.2190    16.1662    -0.5959 H6            1 Compound
      85 H6           3.8449    17.4150     1.5449 H6            1 Compound
      86 H6           2.3349    18.1650     0.9022 H6            1 Compound
      87 H6           3.5387    19.5095    -0.7461 H6            1 Compound
      88 H6           5.1270    18.8361    -0.2242 H6            1 Compound
      89 H6           4.1407    19.8426     0.8989 H6            1 Compound
      90 H6          -1.6809     5.7423     1.2010 H6            1 Compound
      91 H6          -1.7337     5.1661    -0.4136 H6            1 Compound
      92 H6          -2.6376     6.8304    -1.4492 H6            1 Compound
      93 H6          -1.9922     8.1416    -0.4720 H6            1 Compound
      94 H6          -3.9125     6.1394     0.8399 H6            1 Compound
      95 H6          -3.5290     7.8270     1.3231 H6            1 Compound
      96 H6          -5.0803     6.7906    -1.1494 H6            1 Compound
      97 H6          -4.8228     8.5511    -0.8251 H6            1 Compound
      98 H6          -6.2970     6.5929     1.0834 H6            1 Compound
      99 H6          -6.1352     8.3807     1.2746 H6            1 Compound
     100 H6          -7.4203     8.6541    -0.9179 H6            1 Compound
     101 H6          -7.5930     6.8565    -0.9966 H6            1 Compound
     102 H6          -8.8368     6.9012     1.2056 H6            1 Compound
     103 H6          -8.6602     8.6989     1.2463 H6            1 Compound
     104 H6          -9.9717     8.8678    -0.8916 H6            1 Compound
     105 H6         -10.1669     7.0678    -0.9026 H6            1 Compound
     106 H6         -10.9005     8.0500     0.4191 H6            1 Compound
     107 H6           1.9139     3.7143    -1.7328 H6            1 Compound
     108 H6           2.1430     2.0068    -1.3654 H6            1 Compound
     109 H6           4.2253     3.2398    -1.7324 H6            1 Compound
     110 H6           4.2921     2.2671     1.1446 H6            1 Compound
     111 H6           4.5263     1.2462    -0.3194 H6            1 Compound
     112 H6           6.2059     1.7429     1.0251 H6            1 Compound
     113 H6           6.5781     3.4140     0.5544 H6            1 Compound
     114 H6           8.1327     1.5624     1.4131 H6            1 Compound
     115 H6           7.7847     0.6207    -0.0831 H6            1 Compound
     116 H6           9.3443     3.3106     0.1097 H6            1 Compound
     117 H6           9.1340     2.3187    -1.3795 H6            1 Compound
     118 H6          10.6439     1.4118     1.2019 H6            1 Compound
     119 H6          10.4054     0.4098    -0.2651 H6            1 Compound
     120 H6          11.9192     2.1084    -1.5550 H6            1 Compound
     121 H6          12.2046     2.9184     0.0285 H6            1 Compound
     122 H6          12.9460    -0.0419    -0.6108 H6            1 Compound
     123 H6          13.1538     0.8045     0.9615 H6            1 Compound
     124 H6          14.8810     0.8564    -1.5176 H6            1 Compound
     125 H6          14.6869     2.4657    -0.7539 H6            1 Compound
     126 H6          15.5282     1.6907     1.3958 H6            1 Compound
     127 H6          15.5428    -0.0291     0.8622 H6            1 Compound
     128 H6          17.3582     0.4152    -0.7500 H6            1 Compound
     129 H6          17.3988     2.1644    -0.2820 H6            1 Compound
     130 H6          17.8258     0.8909     0.9107 H6            1 Compound
     131 H6           3.7368     4.8143     0.8469 H6            1 Compound
     132 H6           3.2344     5.2694    -0.9119 H6            1 Compound
     133 H6           5.5206     5.5934    -1.4487 H6            1 Compound
     134 H6           5.9783     5.4895     0.3003 H6            1 Compound
     135 H6           4.4209     7.3976     0.8706 H6            1 Compound
     136 H6           3.7217     7.3669    -0.7791 H6            1 Compound
     137 H6           6.6513     8.0519    -0.2707 H6            1 Compound
     138 H6           5.7961     7.8714    -1.8407 H6            1 Compound
     139 H6           6.1032    10.0927    -1.5375 H6            1 Compound
     140 H6           4.3457     9.9140    -1.3269 H6            1 Compound
     141 H6           6.3270     9.9829     1.0391 H6            1 Compound
     142 H6           4.6001    10.4363     1.1135 H6            1 Compound
     143 H6           6.9435    11.8876    -0.3593 H6            1 Compound
     144 H6           6.3303    12.3363     1.2615 H6            1 Compound
     145 H6           5.5855    13.9067    -0.4644 H6            1 Compound
     146 H6           4.7010    12.6066    -1.3432 H6            1 Compound
     147 H6           4.2116    13.0976     0.3398 H6            1 Compound
@<TRIPOS>BOND
       1        2        1 1
       2       21        1 1
       3       41        1 1
       4        5        1 1
       5        3        2 1
       6       20        2 1
       7        4        3 1
       8       18        3 1
       9        5        4 1
      10        8        4 1
      11        6        5 1
      12        7        6 1
      13       61        6 1
      14        8        7 1
      15        9        7 1
      16       10        9 1
      17       14        9 1
      18       11       10 1
      19       62       10 1
      20       12       11 1
      21       13       12 1
      22       63       12 1
      23       14       13 1
      24       17       13 1
      25       15       14 1
      26       16       15 1
      27       17       16 1
      28       19       18 1
      29       20       19 1
      30       64       19 1
      31       65       20 1
      32       22       21 1
      33       66       21 1
      34       67       21 1
      35       23       22 1
      36       33       22 1
      37       68       22 1
      38       24       23 1
      39       69       23 1
      40       70       23 1
      41       25       24 1
      42       71       24 1
      43       72       24 1
      44       26       25 1
      45       73       25 1
      46       74       25 1
      47       27       26 1
      48       75       26 1
      49       76       26 1
      50       28       27 1
      51       77       27 1
      52       78       27 1
      53       29       28 1
      54       79       28 1
      55       80       28 1
      56       30       29 1
      57       81       29 1
      58       82       29 1
      59       31       30 1
      60       83       30 1
      61       84       30 1
      62       32       31 1
      63       85       31 1
      64       86       31 1
      65       87       32 1
      66       88       32 1
      67       89       32 1
      68       34       33 1
      69       90       33 1
      70       91       33 1
      71       35       34 1
      72       92       34 1
      73       93       34 1
      74       36       35 1
      75       94       35 1
      76       95       35 1
      77       37       36 1
      78       96       36 1
      79       97       36 1
      80       38       37 1
      81       98       37 1
      82       99       37 1
      83       39       38 1
      84      100       38 1
      85      101       38 1
      86       40       39 1
      87      102       39 1
      88      103       39 1
      89      104       40 1
      90      105       40 1
      91      106       40 1
      92       42       41 1
      93      107       41 1
      94      108       41 1
      95       43       42 1
      96       53       42 1
      97      109       42 1
      98       44       43 1
      99      110       43 1
     100      111       43 1
     101       45       44 1
     102      112       44 1
     103      113       44 1
     104       46       45 1
     105      114       45 1
     106      115       45 1
     107       47       46 1
     108      116       46 1
     109      117       46 1
     110       48       47 1
     111      118       47 1
     112      119       47 1
     113       49       48 1
     114      120       48 1
     115      121       48 1
     116       50       49 1
     117      122       49 1
     118      123       49 1
     119       51       50 1
     120      124       50 1
     121      125       50 1
     122       52       51 1
     123      126       51 1
     124      127       51 1
     125      128       52 1
     126      129       52 1
     127      130       52 1
     128       54       53 1
     129      131       53 1
     130      132       53 1
     131       55       54 1
     132      133       54 1
     133      134       54 1
     134       56       55 1
     135      135       55 1
     136      136       55 1
     137       57       56 1
     138      137       56 1
     139      138       56 1
     140       58       57 1
     141      139       57 1
     142      140       57 1
     143       59       58 1
     144      141       58 1
     145      142       58 1
     146       60       59 1
     147      143       59 1
     148      144       59 1
     149      145       60 1
     150      146       60 1
     151      147       60 1
@<TRIPOS>SUBSTRUCTURE
       1 Compound        1 RESIDUE    0 **** ROOT      0
