@<TRIPOS>MOLECULE
Compound
147 151 1 0 1
SMALL
NO_CHARGES
@<TRIPOS>CRYSIN
   23.2564    20.7171    19.4634    90.0000    90.0000    90.0000  1  1
@<TRIPOS>ATOM
       1 C0           9.9578     9.5751     9.0309 C0            1 Compound
       2 C1           9.1515     9.4964    10.3490 C1            1 Compound
       3 C1           9.9235     9.6930    11.4350 C1            1 Compound
       4 S2           9.1002     9.5735    12.8848 S2            1 Compound
       5 C1           7.6412     9.2069    12.0991 C1            1 Compound
       6 C1           7.8281     9.1889    10.7122 C1            1 Compound
       7 C1          11.2586     9.8428    11.0193 C1            1 Compound
       8 C1          11.3639     9.6829     9.6671 C1            1 Compound
       9 C1          12.7070     9.6804     9.2532 C1            1 Compound
      10 C1          13.5777     9.8960    10.3572 C1            1 Compound
      11 S2          12.6968    10.0664    11.7986 S2            1 Compound
      12 H3           7.0228     8.9510    10.0446 H3            1 Compound
      13 H3          13.0320     9.5468     8.2302 H3            1 Compound
      14 N4          17.0672    10.8737    11.3168 N4            1 Compound
      15 C1          15.7095    10.8748    11.1959 C1            1 Compound
      16 C1          15.0485     9.9099    10.4061 C1            1 Compound
      17 C1          15.8307     8.9365     9.7776 C1            1 Compound
      18 N4          15.3325     7.9057     9.0488 N4            1 Compound
      19 S2          16.6999     7.0620     8.6539 S2            1 Compound
      20 N4          17.9194     7.9285     9.3582 N4            1 Compound
      21 C1          17.2414     8.9418     9.9514 C1            1 Compound
      22 C1          17.8470     9.9335    10.7193 C1            1 Compound
      23 H5          15.1414    11.6410    11.7098 H5            1 Compound
      24 C0           9.7126    10.8416     8.1551 C0            1 Compound
      25 C0          10.0869    12.3241     8.5092 C0            1 Compound
      26 C0           9.7378    13.1652     7.2320 C0            1 Compound
      27 C0          10.0849    14.6646     7.2763 C0            1 Compound
      28 C0           9.6075    15.4156     6.0122 C0            1 Compound
      29 C0          10.2809    14.9988     4.6867 C0            1 Compound
      30 C0          11.8113    15.1658     4.6553 C0            1 Compound
      31 C0          12.2606    16.6188     4.9000 C0            1 Compound
      32 C0          13.7868    16.7878     4.9047 C0            1 Compound
      33 C0          14.4338    16.5340     3.5322 C0            1 Compound
      34 C0          15.9468    16.8090     3.5317 C0            1 Compound
      35 C0          16.7341    15.8480     4.4239 C0            1 Compound
      36 C0           9.5006    12.9741     9.8077 C0            1 Compound
      37 C0           7.9826    13.3049     9.8735 C0            1 Compound
      38 C0           7.1661    12.0578    10.1475 C0            1 Compound
      39 C0           5.6504    12.1868    10.2479 C0            1 Compound
      40 C0           5.1661    12.9789    11.4621 C0            1 Compound
      41 C0           3.6463    12.7903    11.6073 C0            1 Compound
      42 C0           3.0322    13.5587    12.7836 C0            1 Compound
      43 C0           3.5712    13.1174    14.1447 C0            1 Compound
      44 H6           8.6819    10.8414     7.8443 H6            1 Compound
      45 H6          10.3527    10.6483     7.2686 H6            1 Compound
      46 H6          11.1917    12.3450     8.6436 H6            1 Compound
      47 H6           8.6474    13.0735     7.0338 H6            1 Compound
      48 H6          10.2721    12.7209     6.3652 H6            1 Compound
      49 H6          11.1739    14.8075     7.4345 H6            1 Compound
      50 H6           9.5504    15.1386     8.1236 H6            1 Compound
      51 H6           9.7626    16.5026     6.1688 H6            1 Compound
      52 H6           8.5097    15.2713     5.9047 H6            1 Compound
      53 H6           9.8417    15.6136     3.8715 H6            1 Compound
      54 H6          10.0356    13.9399     4.4612 H6            1 Compound
      55 H6          12.2732    14.4980     5.4124 H6            1 Compound
      56 H6          12.1555    14.8335     3.6541 H6            1 Compound
      57 H6          11.9120    16.9377     5.9032 H6            1 Compound
      58 H6          11.8088    17.2939     4.1403 H6            1 Compound
      59 H6          14.0072    17.8374     5.1991 H6            1 Compound
      60 H6          14.2124    16.1127     5.6757 H6            1 Compound
      61 H6          14.2601    15.4906     3.1968 H6            1 Compound
      62 H6          13.9644    17.2213     2.7945 H6            1 Compound
      63 H6          16.1403    17.8563     3.8509 H6            1 Compound
      64 H6          16.3197    16.6912     2.4913 H6            1 Compound
      65 H6          16.4460    15.9562     5.4890 H6            1 Compound
      66 H6          16.5641    14.7989     4.1010 H6            1 Compound
      67 H6          17.8179    16.0737     4.3416 H6            1 Compound
      68 H6          10.0250    13.9459     9.9194 H6            1 Compound
      69 H6           9.8046    12.3893    10.6993 H6            1 Compound
      70 H6           7.8226    13.9892    10.7359 H6            1 Compound
      71 H6           7.6396    13.8300     8.9600 H6            1 Compound
      72 H6           7.5328    11.6490    11.1068 H6            1 Compound
      73 H6           7.3324    11.3547     9.3299 H6            1 Compound
      74 H6           5.2276    12.5972     9.3054 H6            1 Compound
      75 H6           5.2797    11.1461    10.3751 H6            1 Compound
      76 H6           5.6687    12.5791    12.3684 H6            1 Compound
      77 H6           5.4245    14.0525    11.3431 H6            1 Compound
      78 H6           3.1512    13.1351    10.6734 H6            1 Compound
      79 H6           3.4208    11.7068    11.7351 H6            1 Compound
      80 H6           1.9362    13.3710    12.7715 H6            1 Compound
      81 H6           3.2024    14.6477    12.6496 H6            1 Compound
      82 H6           4.6527    13.3437    14.2389 H6            1 Compound
      83 H6           3.0369    13.6697    14.9456 H6            1 Compound
      84 H6           3.4071    12.0285    14.2933 H6            1 Compound
      85 C0           9.6286     8.2431     8.2210 C0            1 Compound
      86 C0           9.6198     8.1251     6.6313 C0            1 Compound
      87 C0           9.3312     6.6173     6.3032 C0            1 Compound
      88 C0           9.2183     6.2621     4.8013 C0            1 Compound
      89 C0           8.8690     4.7852     4.5442 C0            1 Compound
      90 C0           9.9562     3.7729     4.9435 C0            1 Compound
      91 C0          11.3206     3.9946     4.2646 C0            1 Compound
      92 C0          11.2474     3.9611     2.7248 C0            1 Compound
      93 C0          12.6057     4.2165     2.0542 C0            1 Compound
      94 C0          13.6305     3.1003     2.3208 C0            1 Compound
      95 C0          14.9568     3.3171     1.5751 C0            1 Compound
      96 C0          15.7179     4.5549     2.0527 C0            1 Compound
      97 C0           8.6424     9.0531     5.7701 C0            1 Compound
      98 C0           7.0946     8.8919     5.9153 C0            1 Compound
      99 C0           6.5545     9.6339     7.1349 C0            1 Compound
     100 C0           5.0805     9.4454     7.4926 C0            1 Compound
     101 C0           4.1068    10.1724     6.5606 C0            1 Compound
     102 C0           2.7032    10.1698     7.1960 C0            1 Compound
     103 C0           1.6286    10.8716     6.3546 C0            1 Compound
     104 C0           1.9009    12.3610     6.1391 C0            1 Compound
     105 H6           8.6139     7.9083     8.4996 H6            1 Compound
     106 H6          10.2808     7.4515     8.6511 H6            1 Compound
     107 H6          10.6488     8.3546     6.2771 H6            1 Compound
     108 H6           8.3716     6.3213     6.7795 H6            1 Compound
     109 H6          10.1373     6.0053     6.7599 H6            1 Compound
     110 H6          10.1410     6.5534     4.2591 H6            1 Compound
     111 H6           8.3703     6.8171     4.3545 H6            1 Compound
     112 H6           8.6495     4.6633     3.4627 H6            1 Compound
     113 H6           7.9282     4.5347     5.0818 H6            1 Compound
     114 H6           9.5874     2.7566     4.6824 H6            1 Compound
     115 H6          10.1001     3.7997     6.0436 H6            1 Compound
     116 H6          11.7459     4.9660     4.5935 H6            1 Compound
     117 H6          11.9937     3.1915     4.6268 H6            1 Compound
     118 H6          10.5745     4.7715     2.3758 H6            1 Compound
     119 H6          10.8322     2.9889     2.3801 H6            1 Compound
     120 H6          12.4360     4.2764     0.9566 H6            1 Compound
     121 H6          12.9886     5.1988     2.4011 H6            1 Compound
     122 H6          13.8467     3.0108     3.4052 H6            1 Compound
     123 H6          13.1947     2.1393     1.9697 H6            1 Compound
     124 H6          14.7674     3.3933     0.4822 H6            1 Compound
     125 H6          15.6027     2.4300     1.7548 H6            1 Compound
     126 H6          15.1496     5.4844     1.8478 H6            1 Compound
     127 H6          15.9243     4.4816     3.1414 H6            1 Compound
     128 H6          16.6854     4.6224     1.5119 H6            1 Compound
     129 H6           8.8793     8.8393     4.7101 H6            1 Compound
     130 H6           8.8890    10.1252     5.8076 H6            1 Compound
     131 H6           6.6029     9.3474     5.0283 H6            1 Compound
     132 H6           6.8187     7.8189     5.9401 H6            1 Compound
     133 H6           6.7405    10.7233     7.0225 H6            1 Compound
     134 H6           7.1068     9.2601     7.9867 H6            1 Compound
     135 H6           4.8289     8.3672     7.5860 H6            1 Compound
     136 H6           4.9645     9.9038     8.4960 H6            1 Compound
     137 H6           4.4448    11.2245     6.4503 H6            1 Compound
     138 H6           4.0970     9.6853     5.5625 H6            1 Compound
     139 H6           2.3839     9.1170     7.3549 H6            1 Compound
     140 H6           2.7491    10.6685     8.1914 H6            1 Compound
     141 H6           0.6620    10.7779     6.8971 H6            1 Compound
     142 H6           1.5280    10.3639     5.3724 H6            1 Compound
     143 H6           2.8219    12.5166     5.5417 H6            1 Compound
     144 H6           1.0531    12.8110     5.5810 H6            1 Compound
     145 H6           1.9999    12.8837     7.1147 H6            1 Compound
     146 H5           6.7028     9.0015    12.5953 H5            1 Compound
     147 H5          18.9184     9.9504    10.8631 H5            1 Compound
@<TRIPOS>BOND
       1        2        1 1
       2        8        1 1
       3       24        1 1
       4       85        1 1
       5        3        2 1
       6        6        2 1
       7        4        3 1
       8        7        3 1
       9        5        4 1
      10        6        5 1
      11      146        5 1
      12       12        6 1
      13        8        7 1
      14       11        7 1
      15        9        8 1
      16       10        9 1
      17       13        9 1
      18       11       10 1
      19       16       10 1
      20       15       14 1
      21       22       14 1
      22       16       15 1
      23       23       15 1
      24       17       16 1
      25       18       17 1
      26       21       17 1
      27       19       18 1
      28       20       19 1
      29       21       20 1
      30       22       21 1
      31      147       22 1
      32       25       24 1
      33       44       24 1
      34       45       24 1
      35       26       25 1
      36       36       25 1
      37       46       25 1
      38       27       26 1
      39       47       26 1
      40       48       26 1
      41       28       27 1
      42       49       27 1
      43       50       27 1
      44       29       28 1
      45       51       28 1
      46       52       28 1
      47       30       29 1
      48       53       29 1
      49       54       29 1
      50       31       30 1
      51       55       30 1
      52       56       30 1
      53       32       31 1
      54       57       31 1
      55       58       31 1
      56       33       32 1
      57       59       32 1
      58       60       32 1
      59       34       33 1
      60       61       33 1
      61       62       33 1
      62       35       34 1
      63       63       34 1
      64       64       34 1
      65       65       35 1
      66       66       35 1
      67       67       35 1
      68       37       36 1
      69       68       36 1
      70       69       36 1
      71       38       37 1
      72       70       37 1
      73       71       37 1
      74       39       38 1
      75       72       38 1
      76       73       38 1
      77       40       39 1
      78       74       39 1
      79       75       39 1
      80       41       40 1
      81       76       40 1
      82       77       40 1
      83       42       41 1
      84       78       41 1
      85       79       41 1
      86       43       42 1
      87       80       42 1
      88       81       42 1
      89       82       43 1
      90       83       43 1
      91       84       43 1
      92       86       85 1
      93      105       85 1
      94      106       85 1
      95       87       86 1
      96       97       86 1
      97      107       86 1
      98       88       87 1
      99      108       87 1
     100      109       87 1
     101       89       88 1
     102      110       88 1
     103      111       88 1
     104       90       89 1
     105      112       89 1
     106      113       89 1
     107       91       90 1
     108      114       90 1
     109      115       90 1
     110       92       91 1
     111      116       91 1
     112      117       91 1
     113       93       92 1
     114      118       92 1
     115      119       92 1
     116       94       93 1
     117      120       93 1
     118      121       93 1
     119       95       94 1
     120      122       94 1
     121      123       94 1
     122       96       95 1
     123      124       95 1
     124      125       95 1
     125      126       96 1
     126      127       96 1
     127      128       96 1
     128       98       97 1
     129      129       97 1
     130      130       97 1
     131       99       98 1
     132      131       98 1
     133      132       98 1
     134      100       99 1
     135      133       99 1
     136      134       99 1
     137      101      100 1
     138      135      100 1
     139      136      100 1
     140      102      101 1
     141      137      101 1
     142      138      101 1
     143      103      102 1
     144      139      102 1
     145      140      102 1
     146      104      103 1
     147      141      103 1
     148      142      103 1
     149      143      104 1
     150      144      104 1
     151      145      104 1
@<TRIPOS>SUBSTRUCTURE
       1 Compound        1 RESIDUE    0 **** ROOT      0
