@<TRIPOS>MOLECULE
Compound
123 127 1 0 1
SMALL
NO_CHARGES
@<TRIPOS>CRYSIN
   18.1660    20.9987    20.2959    90.0000    90.0000    90.0000  1  1
@<TRIPOS>ATOM
       1 C0          29.7812    29.6291    28.7733 C0            1 Compound
       2 C1          28.7968    30.2040    29.8024 C1            1 Compound
       3 C1          29.4116    30.7270    30.8844 C1            1 Compound
       4 S2          28.3282    31.3745    31.9815 S2            1 Compound
       5 C1          26.9843    30.9711    31.0114 C1            1 Compound
       6 C1          27.4078    30.3347    29.8388 C1            1 Compound
       7 C1          30.8112    30.5574    30.7261 C1            1 Compound
       8 C1          31.0712    29.9072    29.5536 C1            1 Compound
       9 C1          32.4377    29.6762    29.3566 C1            1 Compound
      10 C1          33.2066    30.1735    30.4403 C1            1 Compound
      11 S2          32.1832    30.9176    31.5857 S2            1 Compound
      12 H3          26.7431    29.9890    29.0581 H3            1 Compound
      13 H3          32.8298    29.1693    28.4876 H3            1 Compound
      14 N4          36.6636    30.8355    31.7911 N4            1 Compound
      15 C1          35.3250    30.9331    31.5541 C1            1 Compound
      16 C1          34.6747    30.0588    30.6544 C1            1 Compound
      17 C1          35.4661    29.0761    30.0322 C1            1 Compound
      18 N4          34.9943    28.1293    29.1798 N4            1 Compound
      19 S2          36.3499    27.2505    28.8300 S2            1 Compound
      20 N4          37.5387    27.9942    29.7023 N4            1 Compound
      21 C1          36.8572    28.9909    30.3182 C1            1 Compound
      22 C1          37.4424    29.8914    31.1991 C1            1 Compound
      23 H5          34.7735    31.7099    32.0640 H5            1 Compound
      24 C0          29.6302    30.6041    27.5434 C0            1 Compound
      25 C0          30.5404    30.7319    26.2709 C0            1 Compound
      26 C0          30.3280    32.1490    25.6216 C0            1 Compound
      27 C0          29.0453    32.4488    24.7901 C0            1 Compound
      28 C0          27.6757    32.4748    25.5005 C0            1 Compound
      29 C0          27.5641    33.4386    26.6974 C0            1 Compound
      30 C0          27.7591    34.9105    26.3102 C0            1 Compound
      31 C0          27.5811    35.8200    27.5238 C0            1 Compound
      32 C0          30.3535    29.6687    25.1512 C0            1 Compound
      33 C0          31.1351    28.3719    25.3365 C0            1 Compound
      34 C0          30.7765    27.3609    24.2325 C0            1 Compound
      35 C0          31.5051    26.0211    24.4176 C0            1 Compound
      36 C0          30.9538    24.9637    23.4449 C0            1 Compound
      37 C0          31.4948    23.5447    23.7019 C0            1 Compound
      38 C0          31.0222    22.9650    25.0497 C0            1 Compound
      39 C0          31.4731    21.5198    25.2306 C0            1 Compound
      40 H6          28.5866    30.5189    27.2128 H6            1 Compound
      41 H6          29.7546    31.6001    28.0228 H6            1 Compound
      42 H6          31.6008    30.7477    26.6063 H6            1 Compound
      43 H6          31.1664    32.2843    24.9016 H6            1 Compound
      44 H6          30.4691    32.9446    26.3842 H6            1 Compound
      45 H6          28.9771    31.7287    23.9477 H6            1 Compound
      46 H6          29.1939    33.4474    24.3275 H6            1 Compound
      47 H6          27.3968    31.4563    25.8170 H6            1 Compound
      48 H6          26.9062    32.7611    24.7507 H6            1 Compound
      49 H6          28.2915    33.1657    27.4840 H6            1 Compound
      50 H6          26.5454    33.3216    27.1284 H6            1 Compound
      51 H6          28.7788    35.0699    25.9021 H6            1 Compound
      52 H6          27.0116    35.1928    25.5374 H6            1 Compound
      53 H6          26.5620    35.7022    27.9504 H6            1 Compound
      54 H6          27.7182    36.8790    27.2199 H6            1 Compound
      55 H6          28.3328    35.5734    28.3040 H6            1 Compound
      56 H6          30.7484    30.0734    24.1919 H6            1 Compound
      57 H6          29.2653    29.4827    25.0148 H6            1 Compound
      58 H6          32.2267    28.5833    25.3322 H6            1 Compound
      59 H6          30.8731    27.9485    26.2969 H6            1 Compound
      60 H6          29.6797    27.1793    24.2932 H6            1 Compound
      61 H6          31.0097    27.7745    23.2267 H6            1 Compound
      62 H6          32.6005    26.1471    24.2787 H6            1 Compound
      63 H6          31.3432    25.6821    25.4480 H6            1 Compound
      64 H6          29.8443    24.9193    23.5226 H6            1 Compound
      65 H6          31.2123    25.2721    22.4089 H6            1 Compound
      66 H6          32.6049    23.5427    23.6453 H6            1 Compound
      67 H6          31.1024    22.8899    22.8930 H6            1 Compound
      68 H6          29.9110    22.9943    25.0975 H6            1 Compound
      69 H6          31.4322    23.5518    25.8943 H6            1 Compound
      70 H6          31.1067    21.1389    26.2081 H6            1 Compound
      71 H6          31.0566    20.8803    24.4238 H6            1 Compound
      72 H6          32.5816    21.4571    25.2169 H6            1 Compound
      73 C0          29.3380    28.1305    28.5221 C0            1 Compound
      74 C0          30.2813    26.8854    28.6190 C0            1 Compound
      75 C0          29.7714    25.7384    27.6783 C0            1 Compound
      76 C0          28.5251    24.8950    28.0412 C0            1 Compound
      77 C0          27.1458    25.5808    27.9798 C0            1 Compound
      78 C0          26.7825    26.2369    26.6304 C0            1 Compound
      79 C0          26.7777    25.2623    25.4454 C0            1 Compound
      80 C0          26.3568    25.9779    24.1630 C0            1 Compound
      81 C0          30.5089    26.2697    30.0304 C0            1 Compound
      82 C0          31.3018    27.1358    30.9950 C0            1 Compound
      83 C0          31.6439    26.4031    32.2937 C0            1 Compound
      84 C0          32.4857    27.3177    33.1907 C0            1 Compound
      85 C0          32.8623    26.6223    34.5043 C0            1 Compound
      86 C0          33.7662    27.4875    35.3987 C0            1 Compound
      87 C0          33.0898    28.7855    35.8674 C0            1 Compound
      88 C0          34.0013    29.5708    36.8045 C0            1 Compound
      89 H6          28.4473    27.8873    29.1269 H6            1 Compound
      90 H6          28.9543    28.1718    27.4900 H6            1 Compound
      91 H6          31.2716    27.1760    28.2142 H6            1 Compound
      92 H6          30.6057    25.0055    27.6222 H6            1 Compound
      93 H6          29.6156    26.1255    26.6569 H6            1 Compound
      94 H6          28.6600    24.4342    29.0412 H6            1 Compound
      95 H6          28.4955    24.0495    27.3206 H6            1 Compound
      96 H6          27.0619    26.3345    28.7806 H6            1 Compound
      97 H6          26.3791    24.8083    28.2065 H6            1 Compound
      98 H6          27.4745    27.0656    26.3995 H6            1 Compound
      99 H6          25.7656    26.6744    26.7365 H6            1 Compound
     100 H6          27.7938    24.8432    25.2884 H6            1 Compound
     101 H6          26.0687    24.4307    25.6462 H6            1 Compound
     102 H6          25.3328    26.3952    24.2717 H6            1 Compound
     103 H6          26.3612    25.2618    23.3149 H6            1 Compound
     104 H6          27.0625    26.8051    23.9325 H6            1 Compound
     105 H6          31.1073    25.3408    29.8927 H6            1 Compound
     106 H6          29.5380    25.9920    30.4942 H6            1 Compound
     107 H6          32.2604    27.4053    30.5081 H6            1 Compound
     108 H6          30.7017    28.0247    31.2497 H6            1 Compound
     109 H6          30.7071    26.1127    32.8179 H6            1 Compound
     110 H6          32.2268    25.4845    32.0600 H6            1 Compound
     111 H6          33.4174    27.6023    32.6517 H6            1 Compound
     112 H6          31.8972    28.2346    33.4005 H6            1 Compound
     113 H6          31.9407    26.3459    35.0613 H6            1 Compound
     114 H6          33.4176    25.6888    34.2646 H6            1 Compound
     115 H6          34.7048    27.7293    34.8526 H6            1 Compound
     116 H6          34.0317    26.8827    36.2934 H6            1 Compound
     117 H6          32.1471    28.5414    36.4037 H6            1 Compound
     118 H6          32.8535    29.4362    35.0003 H6            1 Compound
     119 H6          33.4883    30.5013    37.1269 H6            1 Compound
     120 H6          34.2419    28.9666    37.7048 H6            1 Compound
     121 H6          34.9438    29.8455    36.2846 H6            1 Compound
     122 H5          25.9531    31.1811    31.2599 H5            1 Compound
     123 H5          38.4989    29.8401    31.4271 H5            1 Compound
@<TRIPOS>BOND
       1        2        1 1
       2        8        1 1
       3       24        1 1
       4       73        1 1
       5        3        2 1
       6        6        2 1
       7        4        3 1
       8        7        3 1
       9        5        4 1
      10        6        5 1
      11      122        5 1
      12       12        6 1
      13        8        7 1
      14       11        7 1
      15        9        8 1
      16       10        9 1
      17       13        9 1
      18       11       10 1
      19       16       10 1
      20       15       14 1
      21       22       14 1
      22       16       15 1
      23       23       15 1
      24       17       16 1
      25       18       17 1
      26       21       17 1
      27       19       18 1
      28       20       19 1
      29       21       20 1
      30       22       21 1
      31      123       22 1
      32       25       24 1
      33       40       24 1
      34       41       24 1
      35       26       25 1
      36       32       25 1
      37       42       25 1
      38       27       26 1
      39       43       26 1
      40       44       26 1
      41       28       27 1
      42       45       27 1
      43       46       27 1
      44       29       28 1
      45       47       28 1
      46       48       28 1
      47       30       29 1
      48       49       29 1
      49       50       29 1
      50       31       30 1
      51       51       30 1
      52       52       30 1
      53       53       31 1
      54       54       31 1
      55       55       31 1
      56       33       32 1
      57       56       32 1
      58       57       32 1
      59       34       33 1
      60       58       33 1
      61       59       33 1
      62       35       34 1
      63       60       34 1
      64       61       34 1
      65       36       35 1
      66       62       35 1
      67       63       35 1
      68       37       36 1
      69       64       36 1
      70       65       36 1
      71       38       37 1
      72       66       37 1
      73       67       37 1
      74       39       38 1
      75       68       38 1
      76       69       38 1
      77       70       39 1
      78       71       39 1
      79       72       39 1
      80       74       73 1
      81       89       73 1
      82       90       73 1
      83       75       74 1
      84       81       74 1
      85       91       74 1
      86       76       75 1
      87       92       75 1
      88       93       75 1
      89       77       76 1
      90       94       76 1
      91       95       76 1
      92       78       77 1
      93       96       77 1
      94       97       77 1
      95       79       78 1
      96       98       78 1
      97       99       78 1
      98       80       79 1
      99      100       79 1
     100      101       79 1
     101      102       80 1
     102      103       80 1
     103      104       80 1
     104       82       81 1
     105      105       81 1
     106      106       81 1
     107       83       82 1
     108      107       82 1
     109      108       82 1
     110       84       83 1
     111      109       83 1
     112      110       83 1
     113       85       84 1
     114      111       84 1
     115      112       84 1
     116       86       85 1
     117      113       85 1
     118      114       85 1
     119       87       86 1
     120      115       86 1
     121      116       86 1
     122       88       87 1
     123      117       87 1
     124      118       87 1
     125      119       88 1
     126      120       88 1
     127      121       88 1
@<TRIPOS>SUBSTRUCTURE
       1 Compound        1 RESIDUE    0 **** ROOT      0
