@<TRIPOS>MOLECULE
Compound
148 152 1 0 1
SMALL
NO_CHARGES
@<TRIPOS>CRYSIN
   25.3536    34.0240     9.8040    90.0000    90.0000    90.0000  1  1
@<TRIPOS>ATOM
       1 C0          -2.4329     1.9993     0.3657 C0            1 Compound
       2 C0          -1.6059     0.9343     0.1309 C0            1 Compound
       3 C0          -0.3283     1.3708     0.0132 C0            1 Compound
       4 S1           0.7818     0.1746    -0.1707 S1            1 Compound
       5 C0          -0.3799    -1.0587    -0.1191 C0            1 Compound
       6 C0          -1.6845    -0.4746     0.0194 C0            1 Compound
       7 C0           0.0112    -2.5126    -0.1253 C0            1 Compound
       8 C0          -0.9606    -3.5233     0.0119 C0            1 Compound
       9 N2          -0.6092    -4.8446     0.0532 N2            1 Compound
      10 C0           0.6831    -5.2651    -0.0320 C0            1 Compound
      11 C0           1.6911    -4.3277    -0.1745 C0            1 Compound
      12 C0           1.3720    -2.9403    -0.2249 C0            1 Compound
      13 N2           2.4424    -2.1193    -0.3565 N2            1 Compound
      14 S1           3.7194    -3.1717    -0.4004 S1            1 Compound
      15 N2           3.0077    -4.6467    -0.2575 N2            1 Compound
      16 C0          -0.2144     2.6507     0.1567 C0            1 Compound
      17 C0          -1.5124     3.2138     0.4629 C0            1 Compound
      18 C0          -1.1485     3.7774     1.7973 C0            1 Compound
      19 C0           0.2197     4.0589     1.9003 C0            1 Compound
      20 S1           1.2217     3.6266     0.4577 S1            1 Compound
      21 C0          -3.9784     2.1399     0.5362 C0            1 Compound
      22 C3          -4.5975     3.3156    -0.4017 C3            1 Compound
      23 C3          -4.6676     4.8806     0.0136 C3            1 Compound
      24 C3          -5.7277     5.6615    -0.8586 C3            1 Compound
      25 C3          -6.6159     6.7587    -0.1489 C3            1 Compound
      26 C3          -6.3268     8.2746    -0.3384 C3            1 Compound
      27 C3          -7.4595     9.1357     0.3108 C3            1 Compound
      28 C3          -7.5108    10.5990    -0.1951 C3            1 Compound
      29 C3          -8.6174    11.4368     0.5076 C3            1 Compound
      30 C3          -9.0856    12.6240    -0.3655 C3            1 Compound
      31 C3         -10.0642    13.5672     0.3671 C3            1 Compound
      32 C3         -10.6700    14.5999    -0.6042 C3            1 Compound
      33 C3         -11.5335    15.6360     0.1175 C3            1 Compound
      34 C3          -3.2493     5.5135     0.0355 C3            1 Compound
      35 C3          -2.8207     6.9442    -0.3721 C3            1 Compound
      36 C3          -1.3506     7.1332     0.1157 C3            1 Compound
      37 C3          -0.4765     8.1779    -0.6065 C3            1 Compound
      38 C3           0.8310     8.3765     0.2006 C3            1 Compound
      39 C3           1.9431     9.1203    -0.5581 C3            1 Compound
      40 C3           3.1262     9.4113     0.3869 C3            1 Compound
      41 C3           4.3206    10.0185    -0.3461 C3            1 Compound
      42 C3          -4.7857     0.7614     0.3895 C3            1 Compound
      43 C3          -6.0335    -0.2569     0.5346 C3            1 Compound
      44 C3          -7.2661     0.2161    -0.3298 C3            1 Compound
      45 C3          -8.1081     1.4466     0.0972 C3            1 Compound
      46 C3          -9.0455     1.7627    -1.0928 C3            1 Compound
      47 C3          -9.9673     2.9825    -0.9780 C3            1 Compound
      48 C3         -11.2630     2.7240    -0.1987 C3            1 Compound
      49 C3         -12.1881     3.9499    -0.3037 C3            1 Compound
      50 C3         -13.5907     3.6659     0.2611 C3            1 Compound
      51 C3         -14.2004     4.9225     0.8753 C3            1 Compound
      52 C3          -5.6846    -1.7337     0.0619 C3            1 Compound
      53 C3          -6.7737    -2.8061     0.4616 C3            1 Compound
      54 C3          -6.6474    -4.2219    -0.1754 C3            1 Compound
      55 C3          -7.7191    -5.1833     0.4294 C3            1 Compound
      56 C3          -7.9207    -6.5194    -0.3319 C3            1 Compound
      57 C3          -8.8876    -7.4669     0.4309 C3            1 Compound
      58 C3          -9.2959    -8.7049    -0.3993 C3            1 Compound
      59 C3         -10.1723    -9.6896     0.4079 C3            1 Compound
      60 C3         -10.6615   -10.8565    -0.4710 C3            1 Compound
      61 C3         -11.4853   -11.8719     0.3244 C3            1 Compound
      62 H4          -2.6009    -1.0361     0.1088 H4            1 Compound
      63 H5          -2.0064    -3.2711     0.1027 H5            1 Compound
      64 H5           0.9171    -6.3227     0.0147 H5            1 Compound
      65 H4          -1.8552     4.0018     2.5835 H4            1 Compound
      66 H5           0.6547     4.4978     2.7857 H5            1 Compound
      67 H6          -4.1901     3.2127    -1.4298 H6            1 Compound
      68 H6          -5.6523     3.0384    -0.5167 H6            1 Compound
      69 H6          -5.0949     4.9013     1.0409 H6            1 Compound
      70 H6          -5.3828     5.9328    -1.8781 H6            1 Compound
      71 H6          -6.5079     4.8934    -1.0414 H6            1 Compound
      72 H6          -7.6195     6.6558    -0.6242 H6            1 Compound
      73 H6          -6.7637     6.5041     0.9225 H6            1 Compound
      74 H6          -6.3066     8.4678    -1.4323 H6            1 Compound
      75 H6          -5.3650     8.5905     0.0986 H6            1 Compound
      76 H6          -8.4468     8.7022     0.0356 H6            1 Compound
      77 H6          -7.3650     9.0941     1.4175 H6            1 Compound
      78 H6          -7.7322    10.5395    -1.2823 H6            1 Compound
      79 H6          -6.5356    11.1189    -0.0683 H6            1 Compound
      80 H6          -9.5201    10.8140     0.6898 H6            1 Compound
      81 H6          -8.2323    11.7813     1.4936 H6            1 Compound
      82 H6          -8.2171    13.2241    -0.7111 H6            1 Compound
      83 H6          -9.5954    12.1935    -1.2568 H6            1 Compound
      84 H6         -10.8975    12.9900     0.8248 H6            1 Compound
      85 H6          -9.5081    14.0904     1.1757 H6            1 Compound
      86 H6          -9.8624    15.1406    -1.1420 H6            1 Compound
      87 H6         -11.2999    14.0689    -1.3525 H6            1 Compound
      88 H6         -12.3642    15.1486     0.6699 H6            1 Compound
      89 H6         -10.9137    16.2219     0.8294 H6            1 Compound
      90 H6         -11.9691    16.3405    -0.6245 H6            1 Compound
      91 H6          -2.6648     4.9390    -0.7079 H6            1 Compound
      92 H6          -2.9090     5.3542     1.0708 H6            1 Compound
      93 H6          -3.4220     7.7387     0.0939 H6            1 Compound
      94 H6          -2.8978     7.0221    -1.4801 H6            1 Compound
      95 H6          -1.4033     7.3575     1.2049 H6            1 Compound
      96 H6          -0.7863     6.1808     0.0002 H6            1 Compound
      97 H6          -0.2512     7.7820    -1.6223 H6            1 Compound
      98 H6          -0.9886     9.1576    -0.7089 H6            1 Compound
      99 H6           0.5689     8.9317     1.1286 H6            1 Compound
     100 H6           1.2527     7.3890     0.4946 H6            1 Compound
     101 H6           2.2837     8.4759    -1.3995 H6            1 Compound
     102 H6           1.5668    10.0805    -0.9704 H6            1 Compound
     103 H6           2.7906    10.1201     1.1760 H6            1 Compound
     104 H6           3.4679     8.4742     0.8786 H6            1 Compound
     105 H6           4.7193     9.2972    -1.0911 H6            1 Compound
     106 H6           5.1272    10.2453     0.3851 H6            1 Compound
     107 H6           4.0333    10.9593    -0.8599 H6            1 Compound
     108 H6          -5.5135     1.4376     0.8682 H6            1 Compound
     109 H6          -4.6535     0.6688    -0.7110 H6            1 Compound
     110 H6          -6.3224    -0.3543     1.6106 H6            1 Compound
     111 H6          -6.8732     0.3669    -1.3588 H6            1 Compound
     112 H6          -8.0289    -0.5705    -0.4035 H6            1 Compound
     113 H6          -8.6737     1.2210     1.0282 H6            1 Compound
     114 H6          -7.4873     2.3361     0.2913 H6            1 Compound
     115 H6          -9.6578     0.8726    -1.3603 H6            1 Compound
     116 H6          -8.3739     1.9803    -1.9515 H6            1 Compound
     117 H6         -10.2913     3.2063    -2.0183 H6            1 Compound
     118 H6          -9.4095     3.8656    -0.5967 H6            1 Compound
     119 H6         -11.7760     1.8410    -0.6367 H6            1 Compound
     120 H6         -11.0442     2.5173     0.8731 H6            1 Compound
     121 H6         -12.3160     4.2794    -1.3623 H6            1 Compound
     122 H6         -11.6888     4.7745     0.2473 H6            1 Compound
     123 H6         -13.5503     2.9060     1.0678 H6            1 Compound
     124 H6         -14.2391     3.2682    -0.5551 H6            1 Compound
     125 H6         -15.2263     4.7050     1.2390 H6            1 Compound
     126 H6         -14.2333     5.7606     0.1494 H6            1 Compound
     127 H6         -13.5818     5.2226     1.7507 H6            1 Compound
     128 H6          -5.5359    -1.7291    -1.0402 H6            1 Compound
     129 H6          -4.7339    -2.0637     0.5309 H6            1 Compound
     130 H6          -6.7711    -2.8917     1.5680 H6            1 Compound
     131 H6          -7.7871    -2.4931     0.1643 H6            1 Compound
     132 H6          -5.6385    -4.6550    -0.0069 H6            1 Compound
     133 H6          -6.8094    -4.1208    -1.2718 H6            1 Compound
     134 H6          -8.7104    -4.6782     0.4319 H6            1 Compound
     135 H6          -7.4327    -5.3890     1.4832 H6            1 Compound
     136 H6          -6.9521    -7.0446    -0.4748 H6            1 Compound
     137 H6          -8.3460    -6.2819    -1.3321 H6            1 Compound
     138 H6          -9.8190    -6.9216     0.6991 H6            1 Compound
     139 H6          -8.3897    -7.7932     1.3706 H6            1 Compound
     140 H6          -8.3896    -9.2449    -0.7484 H6            1 Compound
     141 H6          -9.8670    -8.3550    -1.2874 H6            1 Compound
     142 H6         -11.0604    -9.1603     0.8180 H6            1 Compound
     143 H6          -9.5765   -10.0919     1.2571 H6            1 Compound
     144 H6          -9.7921   -11.3857    -0.9169 H6            1 Compound
     145 H6         -11.2943   -10.4561    -1.2931 H6            1 Compound
     146 H6         -12.3776   -11.3895     0.7769 H6            1 Compound
     147 H6         -10.8693   -12.3283     1.1283 H6            1 Compound
     148 H6         -11.8317   -12.6835    -0.3524 H6            1 Compound
@<TRIPOS>BOND
       1        2        1 1
       2       21        1 1
       3       17        1 1
       4        3        2 1
       5        6        2 1
       6        4        3 1
       7       16        3 1
       8        5        4 1
       9        6        5 1
      10        7        5 1
      11       62        6 1
      12        8        7 1
      13       12        7 1
      14        9        8 1
      15       63        8 1
      16       10        9 1
      17       11       10 1
      18       64       10 1
      19       12       11 1
      20       15       11 1
      21       13       12 1
      22       14       13 1
      23       15       14 1
      24       17       16 1
      25       20       16 1
      26       18       17 1
      27       19       18 1
      28       65       18 1
      29       20       19 1
      30       66       19 1
      31       22       21 1
      32       42       21 1
      33       23       22 1
      34       67       22 1
      35       68       22 1
      36       24       23 1
      37       34       23 1
      38       69       23 1
      39       25       24 1
      40       70       24 1
      41       71       24 1
      42       26       25 1
      43       72       25 1
      44       73       25 1
      45       27       26 1
      46       74       26 1
      47       75       26 1
      48       28       27 1
      49       76       27 1
      50       77       27 1
      51       29       28 1
      52       78       28 1
      53       79       28 1
      54       30       29 1
      55       80       29 1
      56       81       29 1
      57       31       30 1
      58       82       30 1
      59       83       30 1
      60       32       31 1
      61       84       31 1
      62       85       31 1
      63       33       32 1
      64       86       32 1
      65       87       32 1
      66       88       33 1
      67       89       33 1
      68       90       33 1
      69       35       34 1
      70       91       34 1
      71       92       34 1
      72       36       35 1
      73       93       35 1
      74       94       35 1
      75       37       36 1
      76       95       36 1
      77       96       36 1
      78       38       37 1
      79       97       37 1
      80       98       37 1
      81       39       38 1
      82       99       38 1
      83      100       38 1
      84       40       39 1
      85      101       39 1
      86      102       39 1
      87       41       40 1
      88      103       40 1
      89      104       40 1
      90      105       41 1
      91      106       41 1
      92      107       41 1
      93       43       42 1
      94      108       42 1
      95      109       42 1
      96       44       43 1
      97       52       43 1
      98      110       43 1
      99       45       44 1
     100      111       44 1
     101      112       44 1
     102       46       45 1
     103      113       45 1
     104      114       45 1
     105       47       46 1
     106      115       46 1
     107      116       46 1
     108       48       47 1
     109      117       47 1
     110      118       47 1
     111       49       48 1
     112      119       48 1
     113      120       48 1
     114       50       49 1
     115      121       49 1
     116      122       49 1
     117       51       50 1
     118      123       50 1
     119      124       50 1
     120      125       51 1
     121      126       51 1
     122      127       51 1
     123       53       52 1
     124      128       52 1
     125      129       52 1
     126       54       53 1
     127      130       53 1
     128      131       53 1
     129       55       54 1
     130      132       54 1
     131      133       54 1
     132       56       55 1
     133      134       55 1
     134      135       55 1
     135       57       56 1
     136      136       56 1
     137      137       56 1
     138       58       57 1
     139      138       57 1
     140      139       57 1
     141       59       58 1
     142      140       58 1
     143      141       58 1
     144       60       59 1
     145      142       59 1
     146      143       59 1
     147       61       60 1
     148      144       60 1
     149      145       60 1
     150      146       61 1
     151      147       61 1
     152      148       61 1
@<TRIPOS>SUBSTRUCTURE
       1 Compound        1 RESIDUE    0 **** ROOT      0
