@<TRIPOS>MOLECULE
Compound
123 127 1 0 1
SMALL
NO_CHARGES
@<TRIPOS>CRYSIN
   23.6585    26.5652    21.5993    90.0000    90.0000    90.0000  1  1
@<TRIPOS>ATOM
       1 C0           9.5941     9.7012     9.4121 C0            1 Compound
       2 C1           8.7328    10.1018    10.6249 C1            1 Compound
       3 C1           9.4894    10.3667    11.8631 C1            1 Compound
       4 S2           8.6548    11.7486    12.6501 S2            1 Compound
       5 C1           7.1747    10.9577    11.9716 C1            1 Compound
       6 C1           7.4305    10.3044    10.7791 C1            1 Compound
       7 C1          10.8439    10.4025    11.3290 C1            1 Compound
       8 C1          10.9579     9.9439    10.0505 C1            1 Compound
       9 C1          12.2945     9.8190     9.6308 C1            1 Compound
      10 C1          13.1921    10.2417    10.6406 C1            1 Compound
      11 S2          12.3191    10.7213    12.0165 S2            1 Compound
      12 H3           6.6604    10.1259    10.0484 H3            1 Compound
      13 H3          12.5980     9.4583     8.6554 H3            1 Compound
      14 N4          15.3085     9.3233     9.7824 N4            1 Compound
      15 C1          16.6689     9.1887     9.7556 C1            1 Compound
      16 C1          17.4851     9.9974    10.5574 C1            1 Compound
      17 C1          16.8777    10.9398    11.3763 C1            1 Compound
      18 N4          17.5658    11.7926    12.1767 N4            1 Compound
      19 S2          16.3532    12.6604    12.8881 S2            1 Compound
      20 N4          14.9770    12.0100    12.2453 N4            1 Compound
      21 C1          15.4628    11.0521    11.4127 C1            1 Compound
      22 C1          14.6735    10.2160    10.5968 C1            1 Compound
      23 H5          17.1224     8.4458     9.1139 H5            1 Compound
      24 C0           9.4749    10.7496     8.2444 C0            1 Compound
      25 C0           8.1091    10.8241     7.5508 C0            1 Compound
      26 C0           7.9594    11.8608     6.4295 C0            1 Compound
      27 C0           8.1313    13.3341     6.8342 C0            1 Compound
      28 C0           7.3586    13.7204     8.1118 C0            1 Compound
      29 C0           7.2929    15.2418     8.3093 C0            1 Compound
      30 C0           6.1836    15.8601     7.4413 C0            1 Compound
      31 C0           6.1392    17.3845     7.5766 C0            1 Compound
      32 C0           4.8856    17.9475     6.8974 C0            1 Compound
      33 C0           4.8406    19.4760     6.6923 C0            1 Compound
      34 C0           4.9702    20.3855     7.9313 C0            1 Compound
      35 C0           6.4280    20.5900     8.3999 C0            1 Compound
      36 C0           6.6069    21.5442     9.5976 C0            1 Compound
      37 C0           6.5980    23.0646     9.3076 C0            1 Compound
      38 C0           5.2898    23.7114     8.8291 C0            1 Compound
      39 C0           4.1266    23.4786     9.7911 C0            1 Compound
      40 H6           9.7082    11.7568     8.6505 H6            1 Compound
      41 H6          10.2396    10.5177     7.4695 H6            1 Compound
      42 H6           7.9162     9.8603     7.0800 H6            1 Compound
      43 H6           7.3171    11.0390     8.2767 H6            1 Compound
      44 H6           8.6508    11.6307     5.5904 H6            1 Compound
      45 H6           6.9201    11.7441     6.0466 H6            1 Compound
      46 H6           9.2060    13.5664     6.9973 H6            1 Compound
      47 H6           7.7879    13.9311     5.9637 H6            1 Compound
      48 H6           6.3238    13.3129     8.1132 H6            1 Compound
      49 H6           7.9014    13.2721     8.9716 H6            1 Compound
      50 H6           8.2890    15.6958     8.1108 H6            1 Compound
      51 H6           7.0243    15.4498     9.3683 H6            1 Compound
      52 H6           6.3215    15.6093     6.3688 H6            1 Compound
      53 H6           5.2138    15.4308     7.7802 H6            1 Compound
      54 H6           6.0939    17.6404     8.6547 H6            1 Compound
      55 H6           7.0592    17.8014     7.1119 H6            1 Compound
      56 H6           4.7952    17.5036     5.8813 H6            1 Compound
      57 H6           3.9986    17.6237     7.4870 H6            1 Compound
      58 H6           5.5931    19.7875     5.9358 H6            1 Compound
      59 H6           3.8375    19.6688     6.2498 H6            1 Compound
      60 H6           4.3176    20.0183     8.7528 H6            1 Compound
      61 H6           4.5799    21.3587     7.6085 H6            1 Compound
      62 H6           6.8190    19.6218     8.7423 H6            1 Compound
      63 H6           7.0738    20.9295     7.5612 H6            1 Compound
      64 H6           7.6325    21.3501     9.9848 H6            1 Compound
      65 H6           5.9047    21.2743    10.4144 H6            1 Compound
      66 H6           6.8822    23.5702    10.2567 H6            1 Compound
      67 H6           7.3918    23.2922     8.5628 H6            1 Compound
      68 H6           5.4628    24.8067     8.7502 H6            1 Compound
      69 H6           5.0285    23.3757     7.8108 H6            1 Compound
      70 H6           4.3784    23.8694    10.7998 H6            1 Compound
      71 H6           3.2264    24.0096     9.4171 H6            1 Compound
      72 H6           3.8853    22.3987     9.8671 H6            1 Compound
      73 C0           9.3933     8.2113     8.9452 C0            1 Compound
      74 C0           7.9184     7.7366     8.9753 C0            1 Compound
      75 C0           7.6314     6.3216     8.4323 C0            1 Compound
      76 C0           7.6376     6.1330     6.8966 C0            1 Compound
      77 C0           6.7581     7.1706     6.1677 C0            1 Compound
      78 C0           6.3897     6.8064     4.7220 C0            1 Compound
      79 C0           5.2359     5.7917     4.6781 C0            1 Compound
      80 C0           4.8086     5.4754     3.2383 C0            1 Compound
      81 C0           3.5436     4.6074     3.2377 C0            1 Compound
      82 C0           3.1382     3.9681     1.8929 C0            1 Compound
      83 C0           2.7670     4.8883     0.7115 C0            1 Compound
      84 C0           3.9799     5.4821    -0.0332 C0            1 Compound
      85 C0           3.6326     6.3216    -1.2811 C0            1 Compound
      86 C0           3.3329     5.5593    -2.5960 C0            1 Compound
      87 C0           2.0601     4.7022    -2.6770 C0            1 Compound
      88 C0           0.7893     5.4971    -2.3838 C0            1 Compound
      89 H6           9.8510     8.0788     7.9412 H6            1 Compound
      90 H6           9.9306     7.5316     9.6437 H6            1 Compound
      91 H6           7.6243     7.7167    10.0464 H6            1 Compound
      92 H6           7.2292     8.4352     8.4806 H6            1 Compound
      93 H6           8.3040     5.5779     8.9118 H6            1 Compound
      94 H6           6.5939     6.0811     8.7549 H6            1 Compound
      95 H6           8.6682     6.1788     6.4823 H6            1 Compound
      96 H6           7.2456     5.1099     6.7162 H6            1 Compound
      97 H6           5.8163     7.3703     6.7252 H6            1 Compound
      98 H6           7.3445     8.0988     6.1283 H6            1 Compound
      99 H6           7.2855     6.4558     4.1653 H6            1 Compound
     100 H6           6.0162     7.7322     4.2293 H6            1 Compound
     101 H6           5.5226     4.8491     5.1895 H6            1 Compound
     102 H6           4.3679     6.2365     5.2157 H6            1 Compound
     103 H6           4.5829     6.4317     2.7283 H6            1 Compound
     104 H6           5.6436     4.9494     2.7272 H6            1 Compound
     105 H6           3.7097     3.7550     3.9328 H6            1 Compound
     106 H6           2.6962     5.2084     3.6375 H6            1 Compound
     107 H6           3.9115     3.2415     1.5626 H6            1 Compound
     108 H6           2.2224     3.3817     2.1308 H6            1 Compound
     109 H6           2.0602     5.6804     1.0410 H6            1 Compound
     110 H6           2.2276     4.2373     0.0124 H6            1 Compound
     111 H6           4.4924     6.1722     0.6517 H6            1 Compound
     112 H6           4.7049     4.6890    -0.3178 H6            1 Compound
     113 H6           4.5508     6.9065    -1.5133 H6            1 Compound
     114 H6           2.8390     7.0611    -1.0426 H6            1 Compound
     115 H6           3.2571     6.3263    -3.3982 H6            1 Compound
     116 H6           4.2035     4.9123    -2.8413 H6            1 Compound
     117 H6           1.9872     4.3007    -3.7112 H6            1 Compound
     118 H6           2.1303     3.8191    -2.0186 H6            1 Compound
     119 H6           0.6984     6.3499    -3.0895 H6            1 Compound
     120 H6          -0.0955     4.8376    -2.5068 H6            1 Compound
     121 H6           0.7935     5.8816    -1.3436 H6            1 Compound
     122 H5           6.1769    11.2518    12.2670 H5            1 Compound
     123 H3          18.5629     9.8931    10.5374 H3            1 Compound
@<TRIPOS>BOND
       1        2        1 1
       2        8        1 1
       3       24        1 1
       4       73        1 1
       5        3        2 1
       6        6        2 1
       7        4        3 1
       8        7        3 1
       9        5        4 1
      10        6        5 1
      11      122        5 1
      12       12        6 1
      13        8        7 1
      14       11        7 1
      15        9        8 1
      16       10        9 1
      17       13        9 1
      18       11       10 1
      19       22       10 1
      20       15       14 1
      21       22       14 1
      22       16       15 1
      23       23       15 1
      24       17       16 1
      25      123       16 1
      26       18       17 1
      27       21       17 1
      28       19       18 1
      29       20       19 1
      30       21       20 1
      31       22       21 1
      32       25       24 1
      33       40       24 1
      34       41       24 1
      35       26       25 1
      36       42       25 1
      37       43       25 1
      38       27       26 1
      39       44       26 1
      40       45       26 1
      41       28       27 1
      42       46       27 1
      43       47       27 1
      44       29       28 1
      45       48       28 1
      46       49       28 1
      47       30       29 1
      48       50       29 1
      49       51       29 1
      50       31       30 1
      51       52       30 1
      52       53       30 1
      53       32       31 1
      54       54       31 1
      55       55       31 1
      56       33       32 1
      57       56       32 1
      58       57       32 1
      59       34       33 1
      60       58       33 1
      61       59       33 1
      62       35       34 1
      63       60       34 1
      64       61       34 1
      65       36       35 1
      66       62       35 1
      67       63       35 1
      68       37       36 1
      69       64       36 1
      70       65       36 1
      71       38       37 1
      72       66       37 1
      73       67       37 1
      74       39       38 1
      75       68       38 1
      76       69       38 1
      77       70       39 1
      78       71       39 1
      79       72       39 1
      80       74       73 1
      81       89       73 1
      82       90       73 1
      83       75       74 1
      84       91       74 1
      85       92       74 1
      86       76       75 1
      87       93       75 1
      88       94       75 1
      89       77       76 1
      90       95       76 1
      91       96       76 1
      92       78       77 1
      93       97       77 1
      94       98       77 1
      95       79       78 1
      96       99       78 1
      97      100       78 1
      98       80       79 1
      99      101       79 1
     100      102       79 1
     101       81       80 1
     102      103       80 1
     103      104       80 1
     104       82       81 1
     105      105       81 1
     106      106       81 1
     107       83       82 1
     108      107       82 1
     109      108       82 1
     110       84       83 1
     111      109       83 1
     112      110       83 1
     113       85       84 1
     114      111       84 1
     115      112       84 1
     116       86       85 1
     117      113       85 1
     118      114       85 1
     119       87       86 1
     120      115       86 1
     121      116       86 1
     122       88       87 1
     123      117       87 1
     124      118       87 1
     125      119       88 1
     126      120       88 1
     127      121       88 1
@<TRIPOS>SUBSTRUCTURE
       1 Compound        1 RESIDUE    0 **** ROOT      0
