@<TRIPOS>MOLECULE
Compound
318 327 1 0 1
SMALL
NO_CHARGES
@<TRIPOS>CRYSIN
   36.1086    24.9003    27.3467    90.0000    90.0000    90.0000  1  1
@<TRIPOS>ATOM
       1 C0           7.7565    10.9831     6.9344 C0            1 Compound
       2 C1           7.3778    10.1828     7.9544 C1            1 Compound
       3 C1           8.4235     9.9113     8.7310 C1            1 Compound
       4 S2           7.6147     8.8285     9.8267 S2            1 Compound
       5 C1           5.9549     9.1925     9.3943 C1            1 Compound
       6 C1           6.0708     9.8022     8.2041 C1            1 Compound
       7 C1           9.6634    10.7247     7.9344 C1            1 Compound
       8 C1           9.1126    11.3754     6.9856 C1            1 Compound
       9 C1           9.8902    12.0388     5.9485 C1            1 Compound
      10 C1          11.2228    11.8295     6.0888 C1            1 Compound
      11 S2          11.5078    10.6412     7.3446 S2            1 Compound
      12 H3           5.2878    10.1518     7.5465 H3            1 Compound
      13 H3           9.4763    12.5662     5.1007 H3            1 Compound
      14 C0          -1.3388     9.1977    15.6502 C0            1 Compound
      15 C1          -2.5440     9.4837    14.7033 C1            1 Compound
      16 C1          -2.2709    10.5679    13.9226 C1            1 Compound
      17 S2          -3.4486    10.9205    12.8255 S2            1 Compound
      18 C1          -4.4376     9.6334    13.3066 C1            1 Compound
      19 C1          -3.8030     8.9222    14.3755 C1            1 Compound
      20 C1          -0.8938    10.8489    13.9408 C1            1 Compound
      21 C1          -0.3079     9.9354    14.7496 C1            1 Compound
      22 C1           0.9416     9.5234    14.2069 C1            1 Compound
      23 C1           1.2841    10.1721    12.9860 C1            1 Compound
      24 S2           0.0421    11.2793    12.6440 S2            1 Compound
      25 H3          -4.1942     8.0282    14.8383 H3            1 Compound
      26 H3           1.4803     8.6851    14.5838 H3            1 Compound
      27 C1           3.3985     8.8420    12.2833 C1            1 Compound
      28 F4           3.3418     8.1009    13.4089 F4            1 Compound
      29 C1           4.4871     8.5949    11.4061 C1            1 Compound
      30 C1           4.6700     9.3014    10.2198 C1            1 Compound
      31 C1           3.6448    10.2618     9.8945 C1            1 Compound
      32 N5           3.6495    11.0536     8.7908 N5            1 Compound
      33 S2           2.3017    11.9775     8.9350 S2            1 Compound
      34 N5           1.6574    11.4742    10.3759 N5            1 Compound
      35 C1           2.5457    10.5181    10.7834 C1            1 Compound
      36 C1           2.4215     9.8403    12.0199 C1            1 Compound
      37 H3           5.2208     7.8541    11.6844 H3            1 Compound
      38 C1          -6.3362    10.3172    11.7652 C1            1 Compound
      39 F4          -5.9669    11.6204    11.8485 F4            1 Compound
      40 C1          -7.4193    10.0145    10.9256 C1            1 Compound
      41 C1          -7.8594     8.7007    10.7712 C1            1 Compound
      42 C1          -7.2151     7.6885    11.4751 C1            1 Compound
      43 N5          -7.5555     6.3815    11.3596 N5            1 Compound
      44 S2          -6.4607     5.6471    12.3533 S2            1 Compound
      45 N5          -5.5551     6.8984    12.9433 N5            1 Compound
      46 C1          -6.1222     7.9800    12.3486 C1            1 Compound
      47 C1          -5.6596     9.3020    12.5028 C1            1 Compound
      48 H3          -7.9114    10.8092    10.3779 H3            1 Compound
      49 C0           7.2050    12.2295     7.9666 C0            1 Compound
      50 C0           7.7359    12.3725     9.5904 C0            1 Compound
      51 C0           7.6165    11.5610    11.0826 C0            1 Compound
      52 C0           7.8230    10.2887    12.1922 C0            1 Compound
      53 C0           9.1482     9.4602    12.7274 C0            1 Compound
      54 C0           9.6069     7.9366    12.3464 C0            1 Compound
      55 C0          11.1952     7.6010    12.4722 C0            1 Compound
      56 C0          11.7725     6.5001    11.4713 C0            1 Compound
      57 C0          13.3386     6.1968    11.3526 C0            1 Compound
      58 C0          14.3537     7.3732    11.1229 C0            1 Compound
      59 C0          15.8672     6.9412    10.9258 C0            1 Compound
      60 C0          16.5593     7.1408     9.5139 C0            1 Compound
      61 C0          18.0851     6.7522     9.5426 C0            1 Compound
      62 C0          18.9762     7.5241    10.5345 C0            1 Compound
      63 C0          20.4614     7.1406    10.3470 C0            1 Compound
      64 C0          21.3687     7.8966    11.3157 C0            1 Compound
      65 C0          15.8417     6.3830     8.3516 C0            1 Compound
      66 C0          16.5245     6.5883     6.9627 C0            1 Compound
      67 C0          15.7259     5.9948     5.7908 C0            1 Compound
      68 C0          16.4999     6.0257     4.4490 C0            1 Compound
      69 C0          16.9390     7.4136     3.9391 C0            1 Compound
      70 C0          15.7682     8.3497     3.6522 C0            1 Compound
      71 H6           7.4730    13.1980     7.4775 H6            1 Compound
      72 H6           6.0905    12.2908     7.9902 H6            1 Compound
      73 H6           8.8076    12.5573     9.4810 H6            1 Compound
      74 H6           7.3120    13.3652     9.8565 H6            1 Compound
      75 H6           8.1477    12.3232    11.6894 H6            1 Compound
      76 H6           6.5295    11.6888    11.2282 H6            1 Compound
      77 H6           7.0021     9.5470    12.1302 H6            1 Compound
      78 H6           7.4985    10.7963    13.1272 H6            1 Compound
      79 H6          10.0011    10.1441    12.7917 H6            1 Compound
      80 H6           8.9567     9.3114    13.8093 H6            1 Compound
      81 H6           9.2617     7.6258    11.3567 H6            1 Compound
      82 H6           8.9961     7.1872    12.8839 H6            1 Compound
      83 H6          11.4570     7.3564    13.5222 H6            1 Compound
      84 H6          11.7621     8.5114    12.2247 H6            1 Compound
      85 H6          11.4646     6.7614    10.4495 H6            1 Compound
      86 H6          11.2713     5.5311    11.6795 H6            1 Compound
      87 H6          13.6674     5.6533    12.2642 H6            1 Compound
      88 H6          13.4640     5.4940    10.4971 H6            1 Compound
      89 H6          14.0685     8.0676    10.3142 H6            1 Compound
      90 H6          14.3009     7.9461    12.0769 H6            1 Compound
      91 H6          16.4441     7.6196    11.5894 H6            1 Compound
      92 H6          16.0369     5.9172    11.3227 H6            1 Compound
      93 H6          16.5056     8.2249     9.2685 H6            1 Compound
      94 H6          18.5311     6.9852     8.5553 H6            1 Compound
      95 H6          18.1930     5.6606     9.7246 H6            1 Compound
      96 H6          18.6762     7.2930    11.5756 H6            1 Compound
      97 H6          18.8675     8.6151    10.3492 H6            1 Compound
      98 H6          20.5947     6.0495    10.5143 H6            1 Compound
      99 H6          20.7879     7.3774     9.3093 H6            1 Compound
     100 H6          22.4265     7.5953    11.1522 H6            1 Compound
     101 H6          21.0933     7.6613    12.3650 H6            1 Compound
     102 H6          21.2864     8.9918    11.1500 H6            1 Compound
     103 H6          15.8059     5.2940     8.5703 H6            1 Compound
     104 H6          14.8013     6.7649     8.2918 H6            1 Compound
     105 H6          17.5113     6.0794     6.9556 H6            1 Compound
     106 H6          16.6691     7.6743     6.7784 H6            1 Compound
     107 H6          15.5113     4.9272     6.0120 H6            1 Compound
     108 H6          14.7572     6.5275     5.6921 H6            1 Compound
     109 H6          17.4178     5.4054     4.5548 H6            1 Compound
     110 H6          15.8694     5.5484     3.6659 H6            1 Compound
     111 H6          17.6311     7.8918     4.6633 H6            1 Compound
     112 H6          17.5007     7.2700     2.9887 H6            1 Compound
     113 H6          15.0886     7.8970     2.8994 H6            1 Compound
     114 H6          15.2035     8.5687     4.5807 H6            1 Compound
     115 H6          16.1560     9.3084     3.2455 H6            1 Compound
     116 C0           8.1976     9.4611     6.1703 C0            1 Compound
     117 C0           9.5200     8.4472     6.7562 C0            1 Compound
     118 C0          10.2824     8.1664     8.3081 C0            1 Compound
     119 C0          11.0163     9.1546     9.5683 C0            1 Compound
     120 C0          10.9841    10.6408    10.3857 C0            1 Compound
     121 C0          11.6272    12.0040     9.8821 C0            1 Compound
     122 C0          11.4059    13.4646    10.4111 C0            1 Compound
     123 C0          12.0315    14.4106     9.3097 C0            1 Compound
     124 C0          11.5544    15.8619     9.0971 C0            1 Compound
     125 C0          10.0992    15.9995     8.5570 C0            1 Compound
     126 C0           9.8873    17.3332     7.7748 C0            1 Compound
     127 C0          10.1079    17.2830     6.2132 C0            1 Compound
     128 C0          10.1179    18.7184     5.6028 C0            1 Compound
     129 C0           8.8630    19.5639     5.8750 C0            1 Compound
     130 C0           8.9933    20.9407     5.1996 C0            1 Compound
     131 C0           7.7727    21.8165     5.4652 C0            1 Compound
     132 C0          11.3836    16.5009     5.7800 C0            1 Compound
     133 C0          11.5649    16.3778     4.2476 C0            1 Compound
     134 C0          12.7020    15.4046     3.8942 C0            1 Compound
     135 C0          13.0576    15.3924     2.3923 C0            1 Compound
     136 C0          11.9134    15.0276     1.4289 C0            1 Compound
     137 C0          11.3608    13.6214     1.6481 C0            1 Compound
     138 H6           7.3012     8.7973     6.0480 H6            1 Compound
     139 H6           8.4564     9.6592     5.1069 H6            1 Compound
     140 H6           9.2921     7.4314     6.3701 H6            1 Compound
     141 H6          10.3663     8.7355     6.1127 H6            1 Compound
     142 H6           9.5930     7.4725     8.8365 H6            1 Compound
     143 H6          11.1003     7.4530     8.0801 H6            1 Compound
     144 H6          10.4776     8.7298    10.3350 H6            1 Compound
     145 H6          12.0455     8.7928     9.7117 H6            1 Compound
     146 H6           9.9505    10.9020    10.6192 H6            1 Compound
     147 H6          11.5022    10.5063    11.3560 H6            1 Compound
     148 H6          11.0740    12.2273     9.0047 H6            1 Compound
     149 H6          12.7123    11.8420     9.7058 H6            1 Compound
     150 H6          11.8478    13.6663    11.4103 H6            1 Compound
     151 H6          10.3206    13.6770    10.4898 H6            1 Compound
     152 H6          11.8638    13.9862     8.2940 H6            1 Compound
     153 H6          13.1320    14.4005     9.4580 H6            1 Compound
     154 H6          11.7094    16.5053     9.9884 H6            1 Compound
     155 H6          12.2377    16.2469     8.3159 H6            1 Compound
     156 H6           9.7840    15.1628     7.8960 H6            1 Compound
     157 H6           9.4405    15.9674     9.4515 H6            1 Compound
     158 H6           8.8218    17.6240     7.9029 H6            1 Compound
     159 H6          10.4998    18.1274     8.2538 H6            1 Compound
     160 H6           9.2497    16.7194     5.7806 H6            1 Compound
     161 H6          10.2004    18.6482     4.4990 H6            1 Compound
     162 H6          11.0089    19.2623     5.9865 H6            1 Compound
     163 H6           8.7379    19.7180     6.9665 H6            1 Compound
     164 H6           7.9686    19.0387     5.4736 H6            1 Compound
     165 H6           9.8939    21.4634     5.5904 H6            1 Compound
     166 H6           9.1086    20.8141     4.1003 H6            1 Compound
     167 H6           7.9084    22.8024     4.9708 H6            1 Compound
     168 H6           7.6484    21.9824     6.5563 H6            1 Compound
     169 H6           6.8571    21.3379     5.0585 H6            1 Compound
     170 H6          12.2927    16.9792     6.2006 H6            1 Compound
     171 H6          11.2966    15.4680     6.1766 H6            1 Compound
     172 H6          11.8135    17.3719     3.8215 H6            1 Compound
     173 H6          10.6237    16.0055     3.7885 H6            1 Compound
     174 H6          13.6202    15.7110     4.4409 H6            1 Compound
     175 H6          12.4308    14.3825     4.2338 H6            1 Compound
     176 H6          13.4256    16.4036     2.1127 H6            1 Compound
     177 H6          13.8955    14.6773     2.2381 H6            1 Compound
     178 H6          11.0904    15.7681     1.5099 H6            1 Compound
     179 H6          12.3110    15.0826     0.3913 H6            1 Compound
     180 H6          12.1686    12.8675     1.5364 H6            1 Compound
     181 H6          10.9019    13.5289     2.6535 H6            1 Compound
     182 H6          10.5771    13.4149     0.8880 H6            1 Compound
     183 C0          -1.7727     9.8194    17.0560 C0            1 Compound
     184 C0          -0.6644    10.1298    18.1079 C0            1 Compound
     185 C0          -0.6266     9.5757    19.6286 C0            1 Compound
     186 C0          -0.1065     8.2242    20.3492 C0            1 Compound
     187 C0           1.2911     8.0911    21.1323 C0            1 Compound
     188 C0           2.4629     7.2462    20.5122 C0            1 Compound
     189 C0           3.7786     7.0755    21.3562 C0            1 Compound
     190 C0           4.7864     6.1920    20.5501 C0            1 Compound
     191 C0           6.1827     5.8132    21.1437 C0            1 Compound
     192 C0           7.2576     6.9433    21.1763 C0            1 Compound
     193 C0           8.7382     6.4745    21.4627 C0            1 Compound
     194 C0           9.6036     6.0659    20.2134 C0            1 Compound
     195 C0          11.0944     5.7213    20.5309 C0            1 Compound
     196 C0          11.9387     6.8656    21.1191 C0            1 Compound
     197 C0          13.4367     6.4925    21.0695 C0            1 Compound
     198 C0          14.3273     7.5792    21.6632 C0            1 Compound
     199 C0           8.9605     4.9248    19.3861 C0            1 Compound
     200 C0           9.7260     4.6233    18.0851 C0            1 Compound
     201 C0           8.8155     3.9685    17.0330 C0            1 Compound
     202 C0           9.3523     4.1165    15.5980 C0            1 Compound
     203 C0           9.6975     5.5713    15.2031 C0            1 Compound
     204 C0           8.5991     6.5962    15.5408 C0            1 Compound
     205 H6          -2.2076    10.8156    16.7950 H6            1 Compound
     206 H6          -2.6125     9.2644    17.5250 H6            1 Compound
     207 H6           0.2197    10.1705    17.4929 H6            1 Compound
     208 H6          -0.8482    11.2101    18.3230 H6            1 Compound
     209 H6          -0.1299    10.3696    20.2302 H6            1 Compound
     210 H6          -1.7041     9.6494    19.9007 H6            1 Compound
     211 H6          -0.4452     7.2618    19.9231 H6            1 Compound
     212 H6          -0.7671     8.2798    21.2458 H6            1 Compound
     213 H6           1.6254     9.0851    21.4951 H6            1 Compound
     214 H6           1.0653     7.5141    22.0575 H6            1 Compound
     215 H6           2.8241     7.6896    19.5954 H6            1 Compound
     216 H6           2.0586     6.2367    20.2768 H6            1 Compound
     217 H6           3.5474     6.5798    22.3236 H6            1 Compound
     218 H6           4.2317     8.0695    21.5640 H6            1 Compound
     219 H6           4.9653     6.6532    19.5541 H6            1 Compound
     220 H6           4.2611     5.2258    20.3780 H6            1 Compound
     221 H6           6.0759     5.3544    22.1491 H6            1 Compound
     222 H6           6.5404     5.0040    20.4905 H6            1 Compound
     223 H6           7.2624     7.5318    20.2331 H6            1 Compound
     224 H6           6.9389     7.6257    21.9924 H6            1 Compound
     225 H6           9.2624     7.3621    21.8777 H6            1 Compound
     226 H6           8.7481     5.6895    22.2476 H6            1 Compound
     227 H6           9.6285     6.9598    19.5478 H6            1 Compound
     228 H6          11.5943     5.4880    19.5690 H6            1 Compound
     229 H6          11.1656     4.8196    21.1757 H6            1 Compound
     230 H6          11.6204     7.0692    22.1623 H6            1 Compound
     231 H6          11.7982     7.7843    20.5074 H6            1 Compound
     232 H6          13.6147     5.5447    21.6212 H6            1 Compound
     233 H6          13.7424     6.3419    20.0084 H6            1 Compound
     234 H6          15.3927     7.2741    21.5710 H6            1 Compound
     235 H6          14.0915     7.7216    22.7380 H6            1 Compound
     236 H6          14.1892     8.5387    21.1213 H6            1 Compound
     237 H6           8.8045     3.9930    19.9710 H6            1 Compound
     238 H6           7.9928     5.3406    19.0585 H6            1 Compound
     239 H6          10.6476     4.0199    18.2370 H6            1 Compound
     240 H6          10.0389     5.6137    17.7229 H6            1 Compound
     241 H6           8.6292     2.9021    17.2845 H6            1 Compound
     242 H6           7.8278     4.4744    17.0352 H6            1 Compound
     243 H6          10.2618     3.4951    15.4526 H6            1 Compound
     244 H6           8.5633     3.7378    14.9120 H6            1 Compound
     245 H6          10.6347     5.8904    15.7055 H6            1 Compound
     246 H6           9.9164     5.5805    14.1198 H6            1 Compound
     247 H6           7.6551     6.3627    15.0094 H6            1 Compound
     248 H6           8.3887     6.6458    16.6293 H6            1 Compound
     249 H6           8.9447     7.6091    15.2649 H6            1 Compound
     250 C0          -0.9099     7.7278    15.7972 C0            1 Compound
     251 C0           0.0500     7.4034    16.9886 C0            1 Compound
     252 C0           1.5909     7.7424    17.1228 C0            1 Compound
     253 C0           2.4534     9.0845    17.3347 C0            1 Compound
     254 C0           2.5015    10.1040    18.5695 C0            1 Compound
     255 C0           3.6782    11.0767    18.4258 C0            1 Compound
     256 C0           3.4816    12.4040    19.2033 C0            1 Compound
     257 C0           4.5824    13.3909    18.7750 C0            1 Compound
     258 C0           4.2911    14.8862    18.9938 C0            1 Compound
     259 C0           2.9348    15.3301    18.3825 C0            1 Compound
     260 C0           2.9473    16.7727    17.8317 C0            1 Compound
     261 C0           3.2775    16.8515    16.3028 C0            1 Compound
     262 C0           3.3104    18.3137    15.7876 C0            1 Compound
     263 C0           2.0045    19.0896    16.0111 C0            1 Compound
     264 C0           2.0887    20.4747    15.3575 C0            1 Compound
     265 C0           0.8077    21.2703    15.5809 C0            1 Compound
     266 C0           4.5787    16.0971    15.9149 C0            1 Compound
     267 C0           4.7922    16.0156    14.3939 C0            1 Compound
     268 C0           5.8756    14.9915    14.0330 C0            1 Compound
     269 C0           6.0949    14.8626    12.5146 C0            1 Compound
     270 C0           4.8291    14.5441    11.6942 C0            1 Compound
     271 C0           4.0713    13.3072    12.1749 C0            1 Compound
     272 H6          -0.5317     7.3063    14.8412 H6            1 Compound
     273 H6          -1.8476     7.1730    16.0265 H6            1 Compound
     274 H6          -0.4842     7.6690    17.8900 H6            1 Compound
     275 H6           0.0308     6.2901    17.0026 H6            1 Compound
     276 H6           1.8871     7.0634    17.9285 H6            1 Compound
     277 H6           2.0339     7.2731    16.2225 H6            1 Compound
     278 H6           2.3230     9.7122    16.4365 H6            1 Compound
     279 H6           3.4936     8.6944    17.3030 H6            1 Compound
     280 H6           1.6470    10.7664    18.6491 H6            1 Compound
     281 H6           2.5943     9.6947    19.5730 H6            1 Compound
     282 H6           3.7248    11.3535    17.3526 H6            1 Compound
     283 H6           4.6306    10.5743    18.7048 H6            1 Compound
     284 H6           3.4456    12.2779    20.3088 H6            1 Compound
     285 H6           2.5002    12.8076    18.8829 H6            1 Compound
     286 H6           4.7107    13.2974    17.6777 H6            1 Compound
     287 H6           5.5497    13.1048    19.2428 H6            1 Compound
     288 H6           4.3231    15.1807    20.0657 H6            1 Compound
     289 H6           5.1321    15.4150    18.4995 H6            1 Compound
     290 H6           2.5872    14.6685    17.5588 H6            1 Compound
     291 H6           2.1861    15.2300    19.1992 H6            1 Compound
     292 H6           1.9068    17.1473    17.9298 H6            1 Compound
     293 H6           3.5990    17.4202    18.4567 H6            1 Compound
     294 H6           2.4473    16.3251    15.7768 H6            1 Compound
     295 H6           3.4728    18.2998    14.6909 H6            1 Compound
     296 H6           4.1551    18.8577    16.2628 H6            1 Compound
     297 H6           1.8193    19.2175    17.0978 H6            1 Compound
     298 H6           1.1584    18.5261    15.5585 H6            1 Compound
     299 H6           2.9430    21.0404    15.7887 H6            1 Compound
     300 H6           2.2529    20.3617    14.2628 H6            1 Compound
     301 H6           0.8997    22.2639    15.0940 H6            1 Compound
     302 H6           0.6345    21.4200    16.6677 H6            1 Compound
     303 H6          -0.0609    20.7358    15.1408 H6            1 Compound
     304 H6           5.4718    16.5396    16.4054 H6            1 Compound
     305 H6           4.4660    15.0510    16.2526 H6            1 Compound
     306 H6           5.0728    17.0048    13.9782 H6            1 Compound
     307 H6           3.8347    15.6864    13.9409 H6            1 Compound
     308 H6           6.8391    15.2801    14.5062 H6            1 Compound
     309 H6           5.5881    13.9972    14.4391 H6            1 Compound
     310 H6           6.5235    15.8105    12.1231 H6            1 Compound
     311 H6           6.8447    14.0647    12.3547 H6            1 Compound
     312 H6           4.1363    15.4108    11.7232 H6            1 Compound
     313 H6           5.1248    14.3982    10.6325 H6            1 Compound
     314 H6           4.6983    12.3997    12.1331 H6            1 Compound
     315 H6           3.6996    13.4310    13.2111 H6            1 Compound
     316 H6           3.1902    13.1680    11.5250 H6            1 Compound
     317 H7          11.9964    12.1574     5.4227 H7            1 Compound
     318 H3          -8.6821     8.4791    10.1020 H3            1 Compound
@<TRIPOS>BOND
       1        2        1 1
       2        8        1 1
       3       49        1 1
       4      116        1 1
       5        3        2 1
       6        6        2 1
       7        4        3 1
       8        7        3 1
       9        5        4 1
      10        6        5 1
      11       30        5 1
      12       12        6 1
      13        8        7 1
      14       11        7 1
      15        9        8 1
      16       10        9 1
      17       13        9 1
      18       11       10 1
      19      317       10 1
      20       15       14 1
      21       21       14 1
      22      183       14 1
      23      250       14 1
      24       16       15 1
      25       19       15 1
      26       17       16 1
      27       20       16 1
      28       18       17 1
      29       19       18 1
      30       47       18 1
      31       25       19 1
      32       21       20 1
      33       24       20 1
      34       22       21 1
      35       23       22 1
      36       26       22 1
      37       24       23 1
      38       36       23 1
      39       28       27 1
      40       29       27 1
      41       36       27 1
      42       30       29 1
      43       37       29 1
      44       31       30 1
      45       32       31 1
      46       35       31 1
      47       33       32 1
      48       34       33 1
      49       35       34 1
      50       36       35 1
      51       39       38 1
      52       40       38 1
      53       47       38 1
      54       41       40 1
      55       48       40 1
      56       42       41 1
      57      318       41 1
      58       43       42 1
      59       46       42 1
      60       44       43 1
      61       45       44 1
      62       46       45 1
      63       47       46 1
      64       50       49 1
      65       71       49 1
      66       72       49 1
      67       51       50 1
      68       73       50 1
      69       74       50 1
      70       52       51 1
      71       75       51 1
      72       76       51 1
      73       53       52 1
      74       77       52 1
      75       78       52 1
      76       54       53 1
      77       79       53 1
      78       80       53 1
      79       55       54 1
      80       81       54 1
      81       82       54 1
      82       56       55 1
      83       83       55 1
      84       84       55 1
      85       57       56 1
      86       85       56 1
      87       86       56 1
      88       58       57 1
      89       87       57 1
      90       88       57 1
      91       59       58 1
      92       89       58 1
      93       90       58 1
      94       60       59 1
      95       91       59 1
      96       92       59 1
      97       61       60 1
      98       65       60 1
      99       93       60 1
     100       62       61 1
     101       94       61 1
     102       95       61 1
     103       63       62 1
     104       96       62 1
     105       97       62 1
     106       64       63 1
     107       98       63 1
     108       99       63 1
     109      100       64 1
     110      101       64 1
     111      102       64 1
     112       66       65 1
     113      103       65 1
     114      104       65 1
     115       67       66 1
     116      105       66 1
     117      106       66 1
     118       68       67 1
     119      107       67 1
     120      108       67 1
     121       69       68 1
     122      109       68 1
     123      110       68 1
     124       70       69 1
     125      111       69 1
     126      112       69 1
     127      113       70 1
     128      114       70 1
     129      115       70 1
     130      117      116 1
     131      138      116 1
     132      139      116 1
     133      118      117 1
     134      140      117 1
     135      141      117 1
     136      119      118 1
     137      142      118 1
     138      143      118 1
     139      120      119 1
     140      144      119 1
     141      145      119 1
     142      121      120 1
     143      146      120 1
     144      147      120 1
     145      122      121 1
     146      148      121 1
     147      149      121 1
     148      123      122 1
     149      150      122 1
     150      151      122 1
     151      124      123 1
     152      152      123 1
     153      153      123 1
     154      125      124 1
     155      154      124 1
     156      155      124 1
     157      126      125 1
     158      156      125 1
     159      157      125 1
     160      127      126 1
     161      158      126 1
     162      159      126 1
     163      128      127 1
     164      132      127 1
     165      160      127 1
     166      129      128 1
     167      161      128 1
     168      162      128 1
     169      130      129 1
     170      163      129 1
     171      164      129 1
     172      131      130 1
     173      165      130 1
     174      166      130 1
     175      167      131 1
     176      168      131 1
     177      169      131 1
     178      133      132 1
     179      170      132 1
     180      171      132 1
     181      134      133 1
     182      172      133 1
     183      173      133 1
     184      135      134 1
     185      174      134 1
     186      175      134 1
     187      136      135 1
     188      176      135 1
     189      177      135 1
     190      137      136 1
     191      178      136 1
     192      179      136 1
     193      180      137 1
     194      181      137 1
     195      182      137 1
     196      184      183 1
     197      205      183 1
     198      206      183 1
     199      185      184 1
     200      207      184 1
     201      208      184 1
     202      186      185 1
     203      209      185 1
     204      210      185 1
     205      187      186 1
     206      211      186 1
     207      212      186 1
     208      188      187 1
     209      213      187 1
     210      214      187 1
     211      189      188 1
     212      215      188 1
     213      216      188 1
     214      190      189 1
     215      217      189 1
     216      218      189 1
     217      191      190 1
     218      219      190 1
     219      220      190 1
     220      192      191 1
     221      221      191 1
     222      222      191 1
     223      193      192 1
     224      223      192 1
     225      224      192 1
     226      194      193 1
     227      225      193 1
     228      226      193 1
     229      195      194 1
     230      199      194 1
     231      227      194 1
     232      196      195 1
     233      228      195 1
     234      229      195 1
     235      197      196 1
     236      230      196 1
     237      231      196 1
     238      198      197 1
     239      232      197 1
     240      233      197 1
     241      234      198 1
     242      235      198 1
     243      236      198 1
     244      200      199 1
     245      237      199 1
     246      238      199 1
     247      201      200 1
     248      239      200 1
     249      240      200 1
     250      202      201 1
     251      241      201 1
     252      242      201 1
     253      203      202 1
     254      243      202 1
     255      244      202 1
     256      204      203 1
     257      245      203 1
     258      246      203 1
     259      247      204 1
     260      248      204 1
     261      249      204 1
     262      251      250 1
     263      272      250 1
     264      273      250 1
     265      252      251 1
     266      274      251 1
     267      275      251 1
     268      253      252 1
     269      276      252 1
     270      277      252 1
     271      254      253 1
     272      278      253 1
     273      279      253 1
     274      255      254 1
     275      280      254 1
     276      281      254 1
     277      256      255 1
     278      282      255 1
     279      283      255 1
     280      257      256 1
     281      284      256 1
     282      285      256 1
     283      258      257 1
     284      286      257 1
     285      287      257 1
     286      259      258 1
     287      288      258 1
     288      289      258 1
     289      260      259 1
     290      290      259 1
     291      291      259 1
     292      261      260 1
     293      292      260 1
     294      293      260 1
     295      262      261 1
     296      266      261 1
     297      294      261 1
     298      263      262 1
     299      295      262 1
     300      296      262 1
     301      264      263 1
     302      297      263 1
     303      298      263 1
     304      265      264 1
     305      299      264 1
     306      300      264 1
     307      301      265 1
     308      302      265 1
     309      303      265 1
     310      267      266 1
     311      304      266 1
     312      305      266 1
     313      268      267 1
     314      306      267 1
     315      307      267 1
     316      269      268 1
     317      308      268 1
     318      309      268 1
     319      270      269 1
     320      310      269 1
     321      311      269 1
     322      271      270 1
     323      312      270 1
     324      313      270 1
     325      314      271 1
     326      315      271 1
     327      316      271 1
@<TRIPOS>SUBSTRUCTURE
       1 Compound        1 RESIDUE    0 **** ROOT      0
