@<TRIPOS>MOLECULE
Compound
124 128 1 0 1
SMALL
NO_CHARGES
@<TRIPOS>CRYSIN
   24.5342    22.2697    12.2739    90.0000    90.0000    90.0000  1  1
@<TRIPOS>ATOM
       1 C0           7.6621    -9.2024     0.0434 C0            1 Compound
       2 C0           6.9971   -10.3796    -0.0160 C0            1 Compound
       3 C0           7.8565   -11.4172     0.0403 C0            1 Compound
       4 C0           9.0925   -11.0212     0.1571 C0            1 Compound
       5 C0           9.1449    -9.5598     0.2355 C0            1 Compound
       6 C0           9.7016    -9.5305     1.6290 C0            1 Compound
       7 C0          10.4484   -10.6701     1.9432 C0            1 Compound
       8 S1          10.5159   -11.9346     0.6529 S1            1 Compound
       9 S1           7.0967   -12.8940     0.0335 S1            1 Compound
      10 C0           5.5425   -12.1999    -0.0915 C0            1 Compound
      11 C0           5.6626   -10.7913    -0.1070 C0            1 Compound
      12 C0           4.2909   -13.0093    -0.1276 C0            1 Compound
      13 C0           4.3790   -14.4217    -0.2011 C0            1 Compound
      14 N2           3.2636   -15.2017    -0.2249 N2            1 Compound
      15 C0           2.0090   -14.6832    -0.1905 C0            1 Compound
      16 C0           1.8517   -13.3063    -0.1195 C0            1 Compound
      17 C0           2.9939   -12.4552    -0.0880 C0            1 Compound
      18 N2           2.7108   -11.1291    -0.0157 N2            1 Compound
      19 S1           1.0583   -11.1021     0.0053 S1            1 Compound
      20 N2           0.6412   -12.6964    -0.0733 N2            1 Compound
      21 C0           7.1144    -7.7506    -0.0925 C0            1 Compound
      22 C3           5.9838    -7.5907    -1.1869 C3            1 Compound
      23 C3           4.7819    -6.6420    -0.7880 C3            1 Compound
      24 C3           4.2335    -7.1281     0.5938 C3            1 Compound
      25 C3           3.0151    -6.4281     1.2401 C3            1 Compound
      26 C3           1.6204    -6.8908     0.7847 C3            1 Compound
      27 C3           1.1681    -6.4507    -0.6140 C3            1 Compound
      28 C3          -0.2418    -6.9852    -0.9507 C3            1 Compound
      29 C3          -1.3565    -6.4153    -0.0462 C3            1 Compound
      30 C3          -2.7550    -6.9560    -0.3888 C3            1 Compound
      31 C3          -2.9038    -8.4525    -0.1012 C3            1 Compound
      32 C3           5.1869    -5.1508    -0.7029 C3            1 Compound
      33 C3           5.6870    -4.5036    -2.0154 C3            1 Compound
      34 C3           6.6049    -3.3022    -1.7136 C3            1 Compound
      35 C3           7.1103    -2.5911    -2.9783 C3            1 Compound
      36 C3           8.4820    -1.9095    -2.7789 C3            1 Compound
      37 C3           8.5597    -0.9333    -1.6103 C3            1 Compound
      38 C3           8.3066    -6.7695    -0.3994 C3            1 Compound
      39 C3           9.0755    -6.1856     0.8450 C3            1 Compound
      40 C3          10.6125    -6.4289     0.7908 C3            1 Compound
      41 C3          11.3850    -6.0243    -0.4878 C3            1 Compound
      42 C3          12.8525    -6.5330    -0.4667 C3            1 Compound
      43 C3          12.9788    -8.0777    -0.3969 C3            1 Compound
      44 C3          14.4387    -8.5457    -0.3955 C3            1 Compound
      45 C3          14.5228   -10.0677    -0.2488 C3            1 Compound
      46 C3           8.7273    -4.6941     1.0437 C3            1 Compound
      47 C3           8.8688    -4.1017     2.4581 C3            1 Compound
      48 C3           8.3785    -2.6266     2.4865 C3            1 Compound
      49 C3           6.8693    -2.4124     2.1670 C3            1 Compound
      50 C3           6.5737    -0.9349     1.8594 C3            1 Compound
      51 C3           5.1312    -0.7078     1.3652 C3            1 Compound
      52 C3           5.0048     0.6790     0.7131 C3            1 Compound
      53 C3           3.5990     0.9374     0.1779 C3            1 Compound
      54 H4           9.5821    -8.7174     2.3293 H4            1 Compound
      55 H5          10.9269   -10.7949     2.9046 H5            1 Compound
      56 H4           4.8344   -10.1188    -0.1488 H4            1 Compound
      57 H5           5.3406   -14.9177    -0.2271 H5            1 Compound
      58 H5           1.1507   -15.3412    -0.2147 H5            1 Compound
      59 H6           6.4208    -7.3511    -2.1772 H6            1 Compound
      60 H6           5.5115    -8.5603    -1.3761 H6            1 Compound
      61 H6           4.0037    -6.7356    -1.5675 H6            1 Compound
      62 H6           5.0654    -6.9905     1.3191 H6            1 Compound
      63 H6           4.0076    -8.2109     0.5647 H6            1 Compound
      64 H6           3.1025    -5.3243     1.2503 H6            1 Compound
      65 H6           3.0506    -6.7426     2.3081 H6            1 Compound
      66 H6           1.5647    -7.9988     0.8646 H6            1 Compound
      67 H6           0.9165    -6.4590     1.5237 H6            1 Compound
      68 H6           1.1847    -5.3417    -0.6916 H6            1 Compound
      69 H6           1.8570    -6.8718    -1.3679 H6            1 Compound
      70 H6          -0.2131    -8.0918    -0.8817 H6            1 Compound
      71 H6          -0.4770    -6.7106    -2.0024 H6            1 Compound
      72 H6          -1.1703    -6.6440     1.0220 H6            1 Compound
      73 H6          -1.3702    -5.3104    -0.1684 H6            1 Compound
      74 H6          -3.4945    -6.4196     0.2457 H6            1 Compound
      75 H6          -2.9978    -6.7484    -1.4530 H6            1 Compound
      76 H6          -3.9480    -8.7674    -0.3085 H6            1 Compound
      77 H6          -2.6794    -8.6625     0.9669 H6            1 Compound
      78 H6          -2.2319    -9.0580    -0.7416 H6            1 Compound
      79 H6           5.9496    -5.1329     0.0603 H6            1 Compound
      80 H6           4.3643    -4.5075    -0.3313 H6            1 Compound
      81 H6           4.8145    -4.2243    -2.6442 H6            1 Compound
      82 H6           6.3110    -5.2110    -2.5922 H6            1 Compound
      83 H6           7.4820    -3.7192    -1.1933 H6            1 Compound
      84 H6           6.1259    -2.5571    -1.0461 H6            1 Compound
      85 H6           6.3351    -1.8710    -3.3208 H6            1 Compound
      86 H6           7.2726    -3.3342    -3.7874 H6            1 Compound
      87 H6           8.7525    -1.3785    -3.7164 H6            1 Compound
      88 H6           9.2458    -2.6995    -2.6013 H6            1 Compound
      89 H6           9.5822    -0.4988    -1.5654 H6            1 Compound
      90 H6           7.8217    -0.1135    -1.7208 H6            1 Compound
      91 H6           8.3933    -1.4774    -0.6612 H6            1 Compound
      92 H6           7.9716    -5.9213    -1.0232 H6            1 Compound
      93 H6           8.9754    -7.2973    -1.1054 H6            1 Compound
      94 H6           8.6809    -6.7153     1.7372 H6            1 Compound
      95 H6          11.1017    -5.9851     1.6835 H6            1 Compound
      96 H6          10.7292    -7.4974     0.8593 H6            1 Compound
      97 H6          11.3757    -4.9195    -0.5935 H6            1 Compound
      98 H6          10.9162    -6.4533    -1.3950 H6            1 Compound
      99 H6          13.3834    -6.0810     0.3974 H6            1 Compound
     100 H6          13.3485    -6.1871    -1.4003 H6            1 Compound
     101 H6          12.4450    -8.5361    -1.2592 H6            1 Compound
     102 H6          12.5377    -8.4608     0.5432 H6            1 Compound
     103 H6          14.9727    -8.0830     0.4627 H6            1 Compound
     104 H6          14.9385    -8.2389    -1.3391 H6            1 Compound
     105 H6          14.0416   -10.3933     0.6997 H6            1 Compound
     106 H6          14.0163   -10.5719    -1.0991 H6            1 Compound
     107 H6          15.5862   -10.3864    -0.2268 H6            1 Compound
     108 H6           7.6747    -4.6359     0.8740 H6            1 Compound
     109 H6           9.2520    -4.0713     0.2873 H6            1 Compound
     110 H6           8.2775    -4.7022     3.1849 H6            1 Compound
     111 H6           9.9360    -4.1318     2.7593 H6            1 Compound
     112 H6           8.9930    -2.0765     1.7423 H6            1 Compound
     113 H6           8.5812    -2.1849     3.4864 H6            1 Compound
     114 H6           6.5836    -2.9442     1.2469 H6            1 Compound
     115 H6           6.2324    -2.7980     2.9931 H6            1 Compound
     116 H6           6.7908    -0.2857     2.7336 H6            1 Compound
     117 H6           7.2538    -0.6379     1.0384 H6            1 Compound
     118 H6           4.8744    -1.4591     0.5877 H6            1 Compound
     119 H6           4.4185    -0.8254     2.2103 H6            1 Compound
     120 H6           5.7104     0.7352    -0.1466 H6            1 Compound
     121 H6           5.2706     1.4728     1.4426 H6            1 Compound
     122 H6           2.8634     0.9393     1.0086 H6            1 Compound
     123 H6           3.3151     0.1617    -0.5656 H6            1 Compound
     124 H6           3.5735     1.9284    -0.3248 H6            1 Compound
@<TRIPOS>BOND
       1        2        1 1
       2       21        1 1
       3        5        1 1
       4        3        2 1
       5       11        2 1
       6        4        3 1
       7        9        3 1
       8        5        4 1
       9        8        4 1
      10        6        5 1
      11        7        6 1
      12       54        6 1
      13        8        7 1
      14       55        7 1
      15       10        9 1
      16       11       10 1
      17       12       10 1
      18       56       11 1
      19       13       12 1
      20       17       12 1
      21       14       13 1
      22       57       13 1
      23       15       14 1
      24       16       15 1
      25       58       15 1
      26       17       16 1
      27       20       16 1
      28       18       17 1
      29       19       18 1
      30       20       19 1
      31       22       21 1
      32       38       21 1
      33       23       22 1
      34       59       22 1
      35       60       22 1
      36       24       23 1
      37       32       23 1
      38       61       23 1
      39       25       24 1
      40       62       24 1
      41       63       24 1
      42       26       25 1
      43       64       25 1
      44       65       25 1
      45       27       26 1
      46       66       26 1
      47       67       26 1
      48       28       27 1
      49       68       27 1
      50       69       27 1
      51       29       28 1
      52       70       28 1
      53       71       28 1
      54       30       29 1
      55       72       29 1
      56       73       29 1
      57       31       30 1
      58       74       30 1
      59       75       30 1
      60       76       31 1
      61       77       31 1
      62       78       31 1
      63       33       32 1
      64       79       32 1
      65       80       32 1
      66       34       33 1
      67       81       33 1
      68       82       33 1
      69       35       34 1
      70       83       34 1
      71       84       34 1
      72       36       35 1
      73       85       35 1
      74       86       35 1
      75       37       36 1
      76       87       36 1
      77       88       36 1
      78       89       37 1
      79       90       37 1
      80       91       37 1
      81       39       38 1
      82       92       38 1
      83       93       38 1
      84       40       39 1
      85       46       39 1
      86       94       39 1
      87       41       40 1
      88       95       40 1
      89       96       40 1
      90       42       41 1
      91       97       41 1
      92       98       41 1
      93       43       42 1
      94       99       42 1
      95      100       42 1
      96       44       43 1
      97      101       43 1
      98      102       43 1
      99       45       44 1
     100      103       44 1
     101      104       44 1
     102      105       45 1
     103      106       45 1
     104      107       45 1
     105       47       46 1
     106      108       46 1
     107      109       46 1
     108       48       47 1
     109      110       47 1
     110      111       47 1
     111       49       48 1
     112      112       48 1
     113      113       48 1
     114       50       49 1
     115      114       49 1
     116      115       49 1
     117       51       50 1
     118      116       50 1
     119      117       50 1
     120       52       51 1
     121      118       51 1
     122      119       51 1
     123       53       52 1
     124      120       52 1
     125      121       52 1
     126      122       53 1
     127      123       53 1
     128      124       53 1
@<TRIPOS>SUBSTRUCTURE
       1 Compound        1 RESIDUE    0 **** ROOT      0
