@<TRIPOS>MOLECULE
RES
244 253 1 0 1
SMALL
NO_CHARGES
@<TRIPOS>CRYSIN
   33.4997    26.8883    29.7004    90.0000    90.0000    90.0000 1 1
@<TRIPOS>ATOM
       1 C0           0.8215     3.0424     0.4132 C0            1 RES     
       2 C1          -0.4312     2.7660    -0.1477 C1            1 RES     
       3 C1          -1.1091     1.7928     0.5073 C1            1 RES     
       4 C1          -0.4289     1.2914     1.4795 C1            1 RES     
       5 C1           0.9072     1.9132     1.5635 C1            1 RES     
       6 C1           1.5996     0.5616     1.1848 C1            1 RES     
       7 C1           0.8627    -0.5964     1.3409 C1            1 RES     
       8 S2          -0.7299    -0.3012     2.1649 S2            1 RES     
       9 C1           1.2733    -1.9907     0.8435 C1            1 RES     
      10 C1           2.6018    -2.2662     0.4274 C1            1 RES     
      11 N3           2.9681    -3.4931    -0.0421 N3            1 RES     
      12 C1           2.1054    -4.5380    -0.1565 C1            1 RES     
      13 C1           0.7824    -4.3581     0.2152 C1            1 RES     
      14 C1           0.3572    -3.0828     0.7217 C1            1 RES     
      15 N3          -0.9651    -3.0213     1.0304 N3            1 RES     
      16 S2          -1.5042    -4.5428     0.6640 S2            1 RES     
      17 N3          -0.1603    -5.3199     0.1180 N3            1 RES     
      18 S2          -2.5958     1.4286    -0.1543 S2            1 RES     
      19 C1          -2.4301     2.6265    -1.3347 C1            1 RES     
      20 C1          -1.1808     3.2441    -1.2287 C1            1 RES     
      21 C0           0.7700     4.7336     0.5990 C0            1 RES     
      22 C0           0.6084     6.3107     0.0414 C0            1 RES     
      23 C0          -0.7979     6.6483    -0.5917 C0            1 RES     
      24 C0          -1.9593     6.7230     0.4171 C0            1 RES     
      25 C0          -3.3561     6.8433    -0.2515 C0            1 RES     
      26 C0          -4.4374     6.9721     0.8446 C0            1 RES     
      27 C0          -5.8885     6.6707     0.4161 C0            1 RES     
      28 C0          -6.5492     7.6931    -0.5044 C0            1 RES     
      29 C0           1.0472     7.4836     1.0182 C0            1 RES     
      30 C0           0.9969     8.9612     0.3963 C0            1 RES     
      31 C0           1.6039    10.0455     1.3452 C0            1 RES     
      32 C0           1.3008    11.5861     1.1689 C0            1 RES     
      33 C0           1.8584    12.5216     0.0343 C0            1 RES     
      34 C0           1.5642    14.0347     0.3903 C0            1 RES     
      35 C0           2.7855    14.9265     0.7613 C0            1 RES     
      36 C0           3.3737    15.7133    -0.4182 C0            1 RES     
      37 C0           2.1597     2.8662    -0.4603 C0            1 RES     
      38 C0           3.7227     2.9456    -0.8885 C0            1 RES     
      39 C0           4.0732     4.4336    -1.2679 C0            1 RES     
      40 C0           4.4670     5.4710    -0.1704 C0            1 RES     
      41 C0           4.6093     6.8243    -0.9059 C0            1 RES     
      42 C0           4.9635     8.0886    -0.1042 C0            1 RES     
      43 C0           4.9138     9.2758    -1.0966 C0            1 RES     
      44 C0           5.2098    10.6331    -0.4758 C0            1 RES     
      45 C0           4.9332     2.2521    -0.0812 C0            1 RES     
      46 C0           6.2739     2.3046    -0.9268 C0            1 RES     
      47 C0           7.6121     1.5243    -0.5847 C0            1 RES     
      48 C0           8.6806     2.2224     0.3360 C0            1 RES     
      49 C0          10.0703     2.5236    -0.3518 C0            1 RES     
      50 C0          11.2141     1.4717    -0.5557 C0            1 RES     
      51 C0          12.2623     1.4130     0.5924 C0            1 RES     
      52 C0          13.6118     0.8208     0.1306 C0            1 RES     
      53 H4           2.5697     0.5389     0.7190 H4            1 RES     
      54 H5           3.3639    -1.5073     0.4772 H5            1 RES     
      55 H4          -0.8554     3.9919    -1.9185 H4            1 RES     
      56 H6           1.7093     4.8975     1.1669 H6            1 RES     
      57 H6           0.7733     4.7145    -0.4889 H6            1 RES     
      58 H6           1.3609     6.5146    -0.7847 H6            1 RES     
      59 H6          -0.7520     7.6166    -1.1315 H6            1 RES     
      60 H6          -1.0376     5.9373    -1.3826 H6            1 RES     
      61 H6          -1.7918     7.5920     1.0871 H6            1 RES     
      62 H6          -1.9538     5.7930     1.0240 H6            1 RES     
      63 H6          -3.4150     7.7129    -0.9453 H6            1 RES     
      64 H6          -3.5242     5.9147    -0.8382 H6            1 RES     
      65 H6          -4.3704     7.9735     1.3258 H6            1 RES     
      66 H6          -4.2115     6.2077     1.6169 H6            1 RES     
      67 H6          -6.5015     6.6384     1.3438 H6            1 RES     
      68 H6          -5.9321     5.6645    -0.0535 H6            1 RES     
      69 H6          -7.6031     7.3755    -0.6799 H6            1 RES     
      70 H6          -6.5750     8.6929    -0.0219 H6            1 RES     
      71 H6          -6.0346     7.7535    -1.4833 H6            1 RES     
      72 H6           0.4290     7.4578     1.9376 H6            1 RES     
      73 H6           2.0964     7.2823     1.3197 H6            1 RES     
      74 H6          -0.0639     9.2279     0.2183 H6            1 RES     
      75 H6           1.5365     9.0023    -0.5730 H6            1 RES     
      76 H6           2.6959     9.8909     1.4319 H6            1 RES     
      77 H6           1.1623     9.8169     2.3382 H6            1 RES     
      78 H6           0.1969    11.7233     1.1899 H6            1 RES     
      79 H6           1.7100    12.0276     2.1028 H6            1 RES     
      80 H6           2.9479    12.4067    -0.1126 H6            1 RES     
      81 H6           1.3639    12.2676    -0.9286 H6            1 RES     
      82 H6           0.9433    14.5469    -0.3766 H6            1 RES     
      83 H6           0.9173    14.0402     1.2938 H6            1 RES     
      84 H6           3.5668    14.3382     1.2889 H6            1 RES     
      85 H6           2.4389    15.7163     1.4656 H6            1 RES     
      86 H6           2.5962    16.3864    -0.8465 H6            1 RES     
      87 H6           3.7671    15.0525    -1.2138 H6            1 RES     
      88 H6           4.1974    16.3704    -0.0543 H6            1 RES     
      89 H6           1.7872     3.2578    -1.4257 H6            1 RES     
      90 H6           2.6750     3.2649     0.4318 H6            1 RES     
      91 H6           3.7136     2.4020    -1.8603 H6            1 RES     
      92 H6           3.2030     4.8423    -1.8241 H6            1 RES     
      93 H6           4.9009     4.4177    -2.0004 H6            1 RES     
      94 H6           5.4234     5.1862     0.3210 H6            1 RES     
      95 H6           3.6962     5.5597     0.6157 H6            1 RES     
      96 H6           5.3819     6.7063    -1.6950 H6            1 RES     
      97 H6           3.6295     7.0258    -1.3872 H6            1 RES     
      98 H6           5.9746     8.0009     0.3501 H6            1 RES     
      99 H6           4.2227     8.2504     0.7054 H6            1 RES     
     100 H6           5.6441     9.1056    -1.9180 H6            1 RES     
     101 H6           3.8955     9.3289    -1.5425 H6            1 RES     
     102 H6           6.2436    10.6738    -0.0808 H6            1 RES     
     103 H6           5.0964    11.4144    -1.2618 H6            1 RES     
     104 H6           4.4972    10.8484     0.3408 H6            1 RES     
     105 H6           5.0762     2.7146     0.9194 H6            1 RES     
     106 H6           4.6785     1.1825     0.0689 H6            1 RES     
     107 H6           5.9663     1.8852    -1.9078 H6            1 RES     
     108 H6           6.5665     3.3597    -1.0974 H6            1 RES     
     109 H6           8.1075     1.4993    -1.5799 H6            1 RES     
     110 H6           7.4660     0.4501    -0.3489 H6            1 RES     
     111 H6           8.7711     1.7502     1.3373 H6            1 RES     
     112 H6           8.2737     3.2381     0.5207 H6            1 RES     
     113 H6          10.5427     3.3824     0.1705 H6            1 RES     
     114 H6           9.8193     2.9124    -1.3617 H6            1 RES     
     115 H6          10.8571     0.4678    -0.8726 H6            1 RES     
     116 H6          11.8001     1.8763    -1.4118 H6            1 RES     
     117 H6          12.5064     2.4481     0.9168 H6            1 RES     
     118 H6          11.8719     0.8526     1.4663 H6            1 RES     
     119 H6          13.5150    -0.2310    -0.2057 H6            1 RES     
     120 H6          14.0347     1.4238    -0.7062 H6            1 RES     
     121 H6          14.3557     0.8627     0.9583 H6            1 RES     
     122 C0          -6.9898     3.7890    -9.1697 C0            1 RES     
     123 C1          -7.5363     2.5231    -8.9263 C1            1 RES     
     124 C1          -8.1493     2.4263    -7.7219 C1            1 RES     
     125 C1          -8.0510     3.5106    -7.0336 C1            1 RES     
     126 C1          -7.2645     4.5265    -7.7604 C1            1 RES     
     127 C1          -6.1252     4.4630    -6.6891 C1            1 RES     
     128 C1          -6.4397     3.9227    -5.4572 C1            1 RES     
     129 S2          -8.2150     3.5762    -5.2827 S2            1 RES     
     130 C1          -5.4333     3.5832    -4.3472 C1            1 RES     
     131 C1          -4.1013     4.0718    -4.3814 C1            1 RES     
     132 N3          -3.1935     3.7522    -3.4152 N3            1 RES     
     133 C1          -3.4794     2.9464    -2.3578 C1            1 RES     
     134 C1          -4.7536     2.4123    -2.2478 C1            1 RES     
     135 C1          -5.7417     2.7300    -3.2410 C1            1 RES     
     136 N3          -6.9444     2.1297    -3.0389 N3            1 RES     
     137 S2          -6.6993     1.2629    -1.6503 S2            1 RES     
     138 N3          -5.1344     1.5820    -1.2535 N3            1 RES     
     139 S2          -8.7897     0.9211    -7.3976 S2            1 RES     
     140 C1          -8.3264     0.3323    -8.9123 C1            1 RES     
     141 C1          -7.6175     1.3088    -9.6176 C1            1 RES     
     142 C0          -7.6285     4.1709   -10.7006 C0            1 RES     
     143 C0          -7.8859     3.9042   -12.3397 C0            1 RES     
     144 C0          -8.6857     2.5859   -12.6784 C0            1 RES     
     145 C0         -10.1764     2.6176   -12.2927 C0            1 RES     
     146 C0         -10.8852     1.2432   -12.4386 C0            1 RES     
     147 C0         -12.3815     1.4005   -12.0869 C0            1 RES     
     148 C0         -13.1485     0.1039   -11.7543 C0            1 RES     
     149 C0         -13.4134    -0.8444   -12.9203 C0            1 RES     
     150 C0          -8.4605     5.1102   -13.1987 C0            1 RES     
     151 C0          -8.5670     4.8499   -14.7777 C0            1 RES     
     152 C0          -8.9717     6.1277   -15.5827 C0            1 RES     
     153 C0          -9.5476     6.0521   -17.0521 C0            1 RES     
     154 C0          -8.7365     5.7049   -18.3540 C0            1 RES     
     155 C0          -9.6068     6.0314   -19.6342 C0            1 RES     
     156 C0          -9.1528     7.2342   -20.5126 C0            1 RES     
     157 C0          -8.2492     6.8486   -21.6921 C0            1 RES     
     158 C0          -5.4137     3.9554    -9.4400 C0            1 RES     
     159 C0          -3.9996     4.6420    -9.8418 C0            1 RES     
     160 C0          -3.9452     4.8214   -11.4057 C0            1 RES     
     161 C0          -4.5847     6.0677   -12.0940 C0            1 RES     
     162 C0          -4.4427     5.8243   -13.6149 C0            1 RES     
     163 C0          -5.0065     6.8594   -14.6036 C0            1 RES     
     164 C0          -4.8130     6.2731   -16.0233 C0            1 RES     
     165 C0          -5.3429     7.1499   -17.1483 C0            1 RES     
     166 C0          -3.3464     5.9089    -9.0893 C0            1 RES     
     167 C0          -1.8511     6.1351    -9.5669 C0            1 RES     
     168 C0          -0.8054     7.1189    -8.8922 C0            1 RES     
     169 C0          -0.7305     8.6069    -9.3992 C0            1 RES     
     170 C0           0.6381     9.0236   -10.0687 C0            1 RES     
     171 C0           1.9320     9.4281    -9.2822 C0            1 RES     
     172 C0           2.0794    10.9514    -9.0029 C0            1 RES     
     173 C0           3.5459    11.3675    -8.7552 C0            1 RES     
     174 H4          -5.1104     4.7268    -6.9324 H4            1 RES     
     175 H5          -3.7713     4.7184    -5.1765 H5            1 RES     
     176 H4          -7.1868     1.1182   -10.5762 H4            1 RES     
     177 H6          -7.2917     5.2240   -10.7967 H6            1 RES     
     178 H6          -6.9886     3.3505   -11.0189 H6            1 RES     
     179 H6          -6.8932     3.7948   -12.8808 H6            1 RES     
     180 H6          -8.6187     2.3659   -13.7639 H6            1 RES     
     181 H6          -8.2020     1.7218   -12.2224 H6            1 RES     
     182 H6         -10.6908     3.3702   -12.9260 H6            1 RES     
     183 H6         -10.2544     2.9271   -11.2290 H6            1 RES     
     184 H6         -10.7798     0.8244   -13.4655 H6            1 RES     
     185 H6         -10.4024     0.5433   -11.7233 H6            1 RES     
     186 H6         -12.9011     1.9684   -12.8909 H6            1 RES     
     187 H6         -12.4361     2.0020   -11.1557 H6            1 RES     
     188 H6         -14.1440     0.4067   -11.3610 H6            1 RES     
     189 H6         -12.6164    -0.4411   -10.9451 H6            1 RES     
     190 H6         -14.0206    -1.7000   -12.5438 H6            1 RES     
     191 H6         -14.0039    -0.3350   -13.7108 H6            1 RES     
     192 H6         -12.4712    -1.2439   -13.3437 H6            1 RES     
     193 H6          -9.4570     5.4045   -12.8134 H6            1 RES     
     194 H6          -7.7792     5.9734   -13.0464 H6            1 RES     
     195 H6          -9.3478     4.0830   -14.9521 H6            1 RES     
     196 H6          -7.6057     4.4704   -15.1831 H6            1 RES     
     197 H6          -8.1467     6.8639   -15.5462 H6            1 RES     
     198 H6          -9.8177     6.5570   -15.0055 H6            1 RES     
     199 H6         -10.4390     5.3866   -17.0375 H6            1 RES     
     200 H6          -9.9071     7.0880   -17.2309 H6            1 RES     
     201 H6          -7.7893     6.2700   -18.4268 H6            1 RES     
     202 H6          -8.4795     4.6232   -18.3503 H6            1 RES     
     203 H6          -9.7824     5.1412   -20.2767 H6            1 RES     
     204 H6         -10.6250     6.3005   -19.2798 H6            1 RES     
     205 H6          -8.6941     8.0340   -19.8923 H6            1 RES     
     206 H6         -10.0549     7.6721   -20.9967 H6            1 RES     
     207 H6          -8.7873     6.1398   -22.3622 H6            1 RES     
     208 H6          -7.2959     6.3927   -21.3637 H6            1 RES     
     209 H6          -8.0251     7.7545   -22.3019 H6            1 RES     
     210 H6          -5.2501     3.0544   -10.0610 H6            1 RES     
     211 H6          -5.6559     5.0206    -9.6046 H6            1 RES     
     212 H6          -3.2841     3.8159    -9.6282 H6            1 RES     
     213 H6          -4.4027     3.9143   -11.8544 H6            1 RES     
     214 H6          -2.8858     4.7947   -11.7200 H6            1 RES     
     215 H6          -4.0601     7.0011   -11.7928 H6            1 RES     
     216 H6          -5.6532     6.1829   -11.8388 H6            1 RES     
     217 H6          -3.3626     5.7032   -13.8435 H6            1 RES     
     218 H6          -4.9668     4.8700   -13.8315 H6            1 RES     
     219 H6          -4.4760     7.8318   -14.5065 H6            1 RES     
     220 H6          -6.0870     7.0233   -14.4138 H6            1 RES     
     221 H6          -3.7311     6.0923   -16.2074 H6            1 RES     
     222 H6          -5.3437     5.2968   -16.0842 H6            1 RES     
     223 H6          -4.7981     8.1130   -17.1934 H6            1 RES     
     224 H6          -5.1998     6.6126   -18.1136 H6            1 RES     
     225 H6          -6.4216     7.3458   -17.0103 H6            1 RES     
     226 H6          -3.9532     6.8289    -9.2342 H6            1 RES     
     227 H6          -3.3164     5.6858    -8.0026 H6            1 RES     
     228 H6          -1.3934     5.1320    -9.4361 H6            1 RES     
     229 H6          -1.8362     6.3646   -10.6509 H6            1 RES     
     230 H6           0.1565     6.6810    -9.2376 H6            1 RES     
     231 H6          -0.7412     7.0288    -7.7883 H6            1 RES     
     232 H6          -1.1060     9.3420    -8.6560 H6            1 RES     
     233 H6          -1.4424     8.6517   -10.2492 H6            1 RES     
     234 H6           0.4444     9.8576   -10.7760 H6            1 RES     
     235 H6           0.9208     8.1661   -10.7159 H6            1 RES     
     236 H6           2.1364     8.7987    -8.3890 H6            1 RES     
     237 H6           2.7572     9.2225   -10.0011 H6            1 RES     
     238 H6           1.7757    11.5196    -9.9091 H6            1 RES     
     239 H6           1.4378    11.2698    -8.1559 H6            1 RES     
     240 H6           3.9733    10.8816    -7.8552 H6            1 RES     
     241 H6           4.1782    11.1048    -9.6349 H6            1 RES     
     242 H6           3.6186    12.4719    -8.6317 H6            1 RES     
     243 H5           2.4457    -5.5019    -0.5462 H5            1 RES     
     244 H5          -8.5428    -0.6796    -9.2675 H5            1 RES     
@<TRIPOS>BOND
       1        1        2 1
       2        1       21 1
       3        1       37 1
       4        1        5 1
       5        2        3 1
       6        2       20 1
       7        3        4 1
       8        3       18 1
       9        4        5 1
      10        4        8 1
      11        5        6 1
      12        6        7 1
      13        6       53 1
      14        7        8 1
      15        7        9 1
      16        9       10 1
      17        9       14 1
      18       10       11 1
      19       10       54 1
      20       11       12 1
      21       12       13 1
      22       12      243 1
      23       13       14 1
      24       13       17 1
      25       14       15 1
      26       15       16 1
      27       16       17 1
      28       18       19 1
      29       19       20 1
      30       19      133 1
      31       20       55 1
      32       21       22 1
      33       21       56 1
      34       21       57 1
      35       22       23 1
      36       22       29 1
      37       22       58 1
      38       23       24 1
      39       23       59 1
      40       23       60 1
      41       24       25 1
      42       24       61 1
      43       24       62 1
      44       25       26 1
      45       25       63 1
      46       25       64 1
      47       26       27 1
      48       26       65 1
      49       26       66 1
      50       27       28 1
      51       27       67 1
      52       27       68 1
      53       28       69 1
      54       28       70 1
      55       28       71 1
      56       29       30 1
      57       29       72 1
      58       29       73 1
      59       30       31 1
      60       30       74 1
      61       30       75 1
      62       31       32 1
      63       31       76 1
      64       31       77 1
      65       32       33 1
      66       32       78 1
      67       32       79 1
      68       33       34 1
      69       33       80 1
      70       33       81 1
      71       34       35 1
      72       34       82 1
      73       34       83 1
      74       35       36 1
      75       35       84 1
      76       35       85 1
      77       36       86 1
      78       36       87 1
      79       36       88 1
      80       37       38 1
      81       37       89 1
      82       37       90 1
      83       38       39 1
      84       38       45 1
      85       38       91 1
      86       39       40 1
      87       39       92 1
      88       39       93 1
      89       40       41 1
      90       40       94 1
      91       40       95 1
      92       41       42 1
      93       41       96 1
      94       41       97 1
      95       42       43 1
      96       42       98 1
      97       42       99 1
      98       43       44 1
      99       43      100 1
     100       43      101 1
     101       44      102 1
     102       44      103 1
     103       44      104 1
     104       45       46 1
     105       45      105 1
     106       45      106 1
     107       46       47 1
     108       46      107 1
     109       46      108 1
     110       47       48 1
     111       47      109 1
     112       47      110 1
     113       48       49 1
     114       48      111 1
     115       48      112 1
     116       49       50 1
     117       49      113 1
     118       49      114 1
     119       50       51 1
     120       50      115 1
     121       50      116 1
     122       51       52 1
     123       51      117 1
     124       51      118 1
     125       52      119 1
     126       52      120 1
     127       52      121 1
     128      122      123 1
     129      122      142 1
     130      122      158 1
     131      122      126 1
     132      123      124 1
     133      123      141 1
     134      124      125 1
     135      124      139 1
     136      125      126 1
     137      125      129 1
     138      126      127 1
     139      127      128 1
     140      127      174 1
     141      128      129 1
     142      128      130 1
     143      130      131 1
     144      130      135 1
     145      131      132 1
     146      131      175 1
     147      132      133 1
     148      133      134 1
     149      134      135 1
     150      134      138 1
     151      135      136 1
     152      136      137 1
     153      137      138 1
     154      139      140 1
     155      140      141 1
     156      140      244 1
     157      141      176 1
     158      142      143 1
     159      142      177 1
     160      142      178 1
     161      143      144 1
     162      143      150 1
     163      143      179 1
     164      144      145 1
     165      144      180 1
     166      144      181 1
     167      145      146 1
     168      145      182 1
     169      145      183 1
     170      146      147 1
     171      146      184 1
     172      146      185 1
     173      147      148 1
     174      147      186 1
     175      147      187 1
     176      148      149 1
     177      148      188 1
     178      148      189 1
     179      149      190 1
     180      149      191 1
     181      149      192 1
     182      150      151 1
     183      150      193 1
     184      150      194 1
     185      151      152 1
     186      151      195 1
     187      151      196 1
     188      152      153 1
     189      152      197 1
     190      152      198 1
     191      153      154 1
     192      153      199 1
     193      153      200 1
     194      154      155 1
     195      154      201 1
     196      154      202 1
     197      155      156 1
     198      155      203 1
     199      155      204 1
     200      156      157 1
     201      156      205 1
     202      156      206 1
     203      157      207 1
     204      157      208 1
     205      157      209 1
     206      158      159 1
     207      158      210 1
     208      158      211 1
     209      159      160 1
     210      159      166 1
     211      159      212 1
     212      160      161 1
     213      160      213 1
     214      160      214 1
     215      161      162 1
     216      161      215 1
     217      161      216 1
     218      162      163 1
     219      162      217 1
     220      162      218 1
     221      163      164 1
     222      163      219 1
     223      163      220 1
     224      164      165 1
     225      164      221 1
     226      164      222 1
     227      165      223 1
     228      165      224 1
     229      165      225 1
     230      166      167 1
     231      166      226 1
     232      166      227 1
     233      167      168 1
     234      167      228 1
     235      167      229 1
     236      168      169 1
     237      168      230 1
     238      168      231 1
     239      169      170 1
     240      169      232 1
     241      169      233 1
     242      170      171 1
     243      170      234 1
     244      170      235 1
     245      171      172 1
     246      171      236 1
     247      171      237 1
     248      172      173 1
     249      172      238 1
     250      172      239 1
     251      173      240 1
     252      173      241 1
     253      173      242 1
@<TRIPOS>SUBSTRUCTURE
       1 RES             1 RESIDUE    0 **** ROOT      0
