@<TRIPOS>MOLECULE
Compound
123 127 1 0 1
SMALL
NO_CHARGES
@<TRIPOS>CRYSIN
   34.8928    22.2670    10.8439    90.0000    90.0000    90.0000  1  1
@<TRIPOS>ATOM
       1 C0           8.8343    -9.9635    -0.0388 C0            1 Compound
       2 C1           8.4232   -11.2129    -0.3898 C1            1 Compound
       3 C1           7.4012   -11.7021    -1.2109 C1            1 Compound
       4 C1           7.4922   -13.0896    -1.3725 C1            1 Compound
       5 S2           8.8548   -13.6887    -0.5450 S2            1 Compound
       6 C1           9.2655   -12.1774     0.0448 C1            1 Compound
       7 C1          10.2509   -11.6715     0.7364 C1            1 Compound
       8 C1          10.0837   -10.2208     0.8594 C1            1 Compound
       9 C1          11.4741    -9.7633     0.5443 C1            1 Compound
      10 C1          12.4310   -10.7187     0.6278 C1            1 Compound
      11 S2          11.8186   -12.3574     1.1659 S2            1 Compound
      12 C1          13.8923   -10.5168     0.3322 C1            1 Compound
      13 N3          14.7210   -11.5917     0.4944 N3            1 Compound
      14 C1          16.0627   -11.5516     0.2480 C1            1 Compound
      15 C1          16.6726   -10.3742    -0.1892 C1            1 Compound
      16 C1          15.8792    -9.2509    -0.3725 C1            1 Compound
      17 N3          16.3683    -8.0603    -0.7993 N3            1 Compound
      18 S2          15.0124    -7.1216    -0.8391 S2            1 Compound
      19 N3          13.8137    -8.1417    -0.3403 N3            1 Compound
      20 C1          14.4779    -9.2989    -0.1154 C1            1 Compound
      21 C0           7.7393    -9.2357     0.7863 C0            1 Compound
      22 C0           6.3173    -8.9360     0.2174 C0            1 Compound
      23 C0           5.5166    -7.9844     1.1467 C0            1 Compound
      24 C0           4.7869    -8.6806     2.2956 C0            1 Compound
      25 C0           3.3713    -9.2053     1.9503 C0            1 Compound
      26 C0           3.2808   -10.2376     0.8113 C0            1 Compound
      27 C0           3.1130    -9.6402    -0.6179 C0            1 Compound
      28 C0           1.6397    -9.6095    -1.0753 C0            1 Compound
      29 C0           0.6837    -8.6679    -0.3151 C0            1 Compound
      30 C0          -0.7507    -9.1450    -0.5661 C0            1 Compound
      31 C0          -1.8446    -8.2611     0.0467 C0            1 Compound
      32 C0          -3.1707    -9.0312    -0.0430 C0            1 Compound
      33 C0          -4.4073    -8.1950     0.2902 C0            1 Compound
      34 C0          -5.6525    -9.0898     0.1800 C0            1 Compound
      35 C0          -6.9536    -8.2940     0.2902 C0            1 Compound
      36 C0          -8.1589    -9.2216     0.1429 C0            1 Compound
      37 C0           9.1314    -9.1372    -1.3600 C0            1 Compound
      38 C0           8.4693    -7.8334    -1.8858 C0            1 Compound
      39 C0           8.3661    -6.6118    -0.9495 C0            1 Compound
      40 C0           9.6852    -6.2736    -0.2909 C0            1 Compound
      41 C0           9.5664    -4.9658     0.5289 C0            1 Compound
      42 C0          10.9513    -4.3504     0.6990 C0            1 Compound
      43 C0          11.4109    -3.7686    -0.6610 C0            1 Compound
      44 C0          12.9173    -3.7797    -0.7971 C0            1 Compound
      45 C0          13.5735    -2.6975     0.0264 C0            1 Compound
      46 C0          15.0899    -2.8141    -0.1153 C0            1 Compound
      47 C0          15.7109    -1.4743     0.2196 C0            1 Compound
      48 C0          17.2341    -1.5084     0.1494 C0            1 Compound
      49 C0          17.7191    -0.0650     0.0695 C0            1 Compound
      50 C0          19.2354     0.0650     0.1675 C0            1 Compound
      51 C0          19.6994     1.4853    -0.2017 C0            1 Compound
      52 C0          19.0043     2.5948     0.5922 C0            1 Compound
      53 H4           6.6503   -11.0955    -1.6963 H4            1 Compound
      54 H5           6.8217   -13.6877    -1.9739 H5            1 Compound
      55 H4          11.6625    -8.7349     0.3093 H4            1 Compound
      56 H5          16.6633   -12.4401     0.3958 H5            1 Compound
      57 H4          17.7377   -10.3385    -0.3868 H4            1 Compound
      58 H6           8.1984    -8.2933     1.1372 H6            1 Compound
      59 H6           7.5711    -9.8293     1.7136 H6            1 Compound
      60 H6           6.3669    -8.3980    -0.7171 H6            1 Compound
      61 H6           5.7774    -9.8547    -0.0315 H6            1 Compound
      62 H6           4.7739    -7.3775     0.5890 H6            1 Compound
      63 H6           6.2293    -7.2415     1.5661 H6            1 Compound
      64 H6           4.6205    -7.9223     3.0926 H6            1 Compound
      65 H6           5.4308    -9.4743     2.7272 H6            1 Compound
      66 H6           2.6952    -8.3499     1.7555 H6            1 Compound
      67 H6           3.0195    -9.7002     2.8801 H6            1 Compound
      68 H6           2.4159   -10.9114     0.9878 H6            1 Compound
      69 H6           4.1610   -10.9052     0.8907 H6            1 Compound
      70 H6           3.6248    -8.6714    -0.7684 H6            1 Compound
      71 H6           3.5907   -10.3599    -1.3184 H6            1 Compound
      72 H6           1.5831    -9.3561    -2.1583 H6            1 Compound
      73 H6           1.2791   -10.6568    -0.9752 H6            1 Compound
      74 H6           0.8504    -7.6168    -0.6409 H6            1 Compound
      75 H6           0.8264    -8.7391     0.7773 H6            1 Compound
      76 H6          -0.9445    -9.2300    -1.6585 H6            1 Compound
      77 H6          -0.8245   -10.1615    -0.1155 H6            1 Compound
      78 H6          -1.8900    -7.3089    -0.5260 H6            1 Compound
      79 H6          -1.6359    -8.0314     1.1149 H6            1 Compound
      80 H6          -3.2989    -9.4066    -1.0824 H6            1 Compound
      81 H6          -3.1135    -9.9070     0.6434 H6            1 Compound
      82 H6          -4.4740    -7.3672    -0.4492 H6            1 Compound
      83 H6          -4.3384    -7.7625     1.3126 H6            1 Compound
      84 H6          -5.6492    -9.5971    -0.8104 H6            1 Compound
      85 H6          -5.6138    -9.8681     0.9753 H6            1 Compound
      86 H6          -6.9872    -7.5371    -0.5238 H6            1 Compound
      87 H6          -7.0051    -7.7730     1.2700 H6            1 Compound
      88 H6          -8.1686    -9.9744     0.9598 H6            1 Compound
      89 H6          -8.1222    -9.7509    -0.8344 H6            1 Compound
      90 H6          -9.0968    -8.6304     0.1881 H6            1 Compound
      91 H6          10.2009    -8.8738    -1.3489 H6            1 Compound
      92 H6           9.0559    -9.8120    -2.2450 H6            1 Compound
      93 H6           9.0969    -7.5172    -2.7513 H6            1 Compound
      94 H6           7.4919    -8.0410    -2.3592 H6            1 Compound
      95 H6           8.0459    -5.7549    -1.5817 H6            1 Compound
      96 H6           7.6024    -6.6985    -0.1708 H6            1 Compound
      97 H6          10.0495    -7.0782     0.3799 H6            1 Compound
      98 H6          10.4130    -6.2277    -1.1156 H6            1 Compound
      99 H6           9.1028    -5.2132     1.5105 H6            1 Compound
     100 H6           8.9235    -4.2087     0.0288 H6            1 Compound
     101 H6          11.6239    -5.1588     1.0649 H6            1 Compound
     102 H6          10.9545    -3.5364     1.4567 H6            1 Compound
     103 H6          11.0789    -4.3785    -1.5135 H6            1 Compound
     104 H6          10.9525    -2.7712    -0.8436 H6            1 Compound
     105 H6          13.3002    -4.7888    -0.5361 H6            1 Compound
     106 H6          13.1672    -3.5830    -1.8645 H6            1 Compound
     107 H6          13.2070    -1.7324    -0.3914 H6            1 Compound
     108 H6          13.2996    -2.7437     1.1032 H6            1 Compound
     109 H6          15.4641    -3.6432     0.5259 H6            1 Compound
     110 H6          15.3661    -3.0335    -1.1723 H6            1 Compound
     111 H6          15.3972    -1.1213     1.2270 H6            1 Compound
     112 H6          15.3222    -0.7607    -0.5432 H6            1 Compound
     113 H6          17.5823    -2.0359    -0.7671 H6            1 Compound
     114 H6          17.6257    -2.0419     1.0431 H6            1 Compound
     115 H6          17.2593     0.5216     0.8939 H6            1 Compound
     116 H6          17.3748     0.3453    -0.9075 H6            1 Compound
     117 H6          19.7273    -0.6414    -0.5367 H6            1 Compound
     118 H6          19.5463    -0.1965     1.2023 H6            1 Compound
     119 H6          19.5007     1.6604    -1.2816 H6            1 Compound
     120 H6          20.7960     1.5461    -0.0362 H6            1 Compound
     121 H6          19.4196     3.5783     0.2909 H6            1 Compound
     122 H6          17.9164     2.6198     0.3661 H6            1 Compound
     123 H6          19.1510     2.4505     1.6822 H6            1 Compound
@<TRIPOS>BOND
       1        2        1 1
       2       21        1 1
       3       37        1 1
       4        8        1 1
       5        3        2 1
       6        6        2 1
       7        4        3 1
       8       53        3 1
       9        5        4 1
      10       54        4 1
      11        6        5 1
      12        7        6 1
      13        8        7 1
      14       11        7 1
      15        9        8 1
      16       10        9 1
      17       55        9 1
      18       11       10 1
      19       12       10 1
      20       13       12 1
      21       20       12 1
      22       14       13 1
      23       15       14 1
      24       56       14 1
      25       16       15 1
      26       57       15 1
      27       17       16 1
      28       20       16 1
      29       18       17 1
      30       19       18 1
      31       20       19 1
      32       22       21 1
      33       58       21 1
      34       59       21 1
      35       23       22 1
      36       60       22 1
      37       61       22 1
      38       24       23 1
      39       62       23 1
      40       63       23 1
      41       25       24 1
      42       64       24 1
      43       65       24 1
      44       26       25 1
      45       66       25 1
      46       67       25 1
      47       27       26 1
      48       68       26 1
      49       69       26 1
      50       28       27 1
      51       70       27 1
      52       71       27 1
      53       29       28 1
      54       72       28 1
      55       73       28 1
      56       30       29 1
      57       74       29 1
      58       75       29 1
      59       31       30 1
      60       76       30 1
      61       77       30 1
      62       32       31 1
      63       78       31 1
      64       79       31 1
      65       33       32 1
      66       80       32 1
      67       81       32 1
      68       34       33 1
      69       82       33 1
      70       83       33 1
      71       35       34 1
      72       84       34 1
      73       85       34 1
      74       36       35 1
      75       86       35 1
      76       87       35 1
      77       88       36 1
      78       89       36 1
      79       90       36 1
      80       38       37 1
      81       91       37 1
      82       92       37 1
      83       39       38 1
      84       93       38 1
      85       94       38 1
      86       40       39 1
      87       95       39 1
      88       96       39 1
      89       41       40 1
      90       97       40 1
      91       98       40 1
      92       42       41 1
      93       99       41 1
      94      100       41 1
      95       43       42 1
      96      101       42 1
      97      102       42 1
      98       44       43 1
      99      103       43 1
     100      104       43 1
     101       45       44 1
     102      105       44 1
     103      106       44 1
     104       46       45 1
     105      107       45 1
     106      108       45 1
     107       47       46 1
     108      109       46 1
     109      110       46 1
     110       48       47 1
     111      111       47 1
     112      112       47 1
     113       49       48 1
     114      113       48 1
     115      114       48 1
     116       50       49 1
     117      115       49 1
     118      116       49 1
     119       51       50 1
     120      117       50 1
     121      118       50 1
     122       52       51 1
     123      119       51 1
     124      120       51 1
     125      121       52 1
     126      122       52 1
     127      123       52 1
@<TRIPOS>SUBSTRUCTURE
       1 Compound        1 RESIDUE    0 **** ROOT      0
