@<TRIPOS>MOLECULE
RES
3632 3781 1 0 1
SMALL
NO_CHARGES
@<TRIPOS>CRYSIN
  160.5738   234.6301    83.1958    90.0000    90.0000    90.0000 1 1
@<TRIPOS>ATOM
       1 C0           1.4079     3.1489     0.0776 C0            1 RES     
       2 C1           0.1223     2.6455    -0.5250 C1            1 RES     
       3 C1          -0.6996     2.1851     0.3588 C1            1 RES     
       4 C1          -0.0867     2.1347     1.7184 C1            1 RES     
       5 C1           1.4336     2.3245     1.4017 C1            1 RES     
       6 C1           1.9617     0.9478     1.1649 C1            1 RES     
       7 C1           1.1787    -0.0744     1.4955 C1            1 RES     
       8 S2          -0.3134     0.4429     2.3481 S2            1 RES     
       9 C1           1.5109    -1.5051     1.1653 C1            1 RES     
      10 C1           2.8003    -1.8728     0.6978 C1            1 RES     
      11 N3           3.0920    -3.1608     0.3609 N3            1 RES     
      12 C1           2.1797    -4.1613     0.4388 C1            1 RES     
      13 C1           0.8983    -3.8715     0.8829 C1            1 RES     
      14 C1           0.5551    -2.5412     1.2542 C1            1 RES     
      15 N3          -0.7329    -2.3737     1.6532 N3            1 RES     
      16 S2          -1.3576    -3.8985     1.5248 S2            1 RES     
      17 N3          -0.0863    -4.7985     0.9793 N3            1 RES     
      18 S2          -2.2194     1.4750    -0.2752 S2            1 RES     
      19 C1          -1.7806     2.0786    -1.9670 C1            1 RES     
      20 C1          -0.3027     2.3646    -1.8981 C1            1 RES     
      21 C0           1.3774     4.6762     0.4414 C0            1 RES     
      22 C0           0.4520     5.5395     1.3698 C0            1 RES     
      23 C0          -0.9451     5.7413     0.7571 C0            1 RES     
      24 C0          -1.9980     6.2837     1.7557 C0            1 RES     
      25 C0          -3.4080     5.9537     1.2440 C0            1 RES     
      26 C0          -4.5581     6.5411     2.0706 C0            1 RES     
      27 C0          -5.9053     6.0089     1.5394 C0            1 RES     
      28 C0          -7.0945     6.8045     2.0630 C0            1 RES     
      29 C0           1.3227     6.8289     1.6682 C0            1 RES     
      30 C0           0.8625     8.2542     2.0772 C0            1 RES     
      31 C0           0.7976     9.2577     0.8776 C0            1 RES     
      32 C0           1.4222    10.6373     1.2420 C0            1 RES     
      33 C0           1.7395    11.4878    -0.0017 C0            1 RES     
      34 C0           2.8318    12.5581     0.2413 C0            1 RES     
      35 C0           2.4537    13.6372     1.2660 C0            1 RES     
      36 C0           3.5180    14.7374     1.2997 C0            1 RES     
      37 C0           2.5415     2.9647    -1.0203 C0            1 RES     
      38 C0           4.0568     3.4164    -0.9924 C0            1 RES     
      39 C0           4.3580     4.8339    -0.4210 C0            1 RES     
      40 C0           5.7281     5.4201    -0.7652 C0            1 RES     
      41 C0           5.8789     6.8770    -0.2988 C0            1 RES     
      42 C0           5.9131     7.0690     1.2248 C0            1 RES     
      43 C0           6.2419     8.5238     1.6121 C0            1 RES     
      44 C0           5.1203     9.5049     1.2824 C0            1 RES     
      45 C0           5.0769     2.3332    -0.5218 C0            1 RES     
      46 C0           6.2042     2.2253    -1.5759 C0            1 RES     
      47 C0           7.3507     1.2592    -1.2969 C0            1 RES     
      48 C0           8.3394     1.7724    -0.2368 C0            1 RES     
      49 C0           9.6829     1.0495    -0.4191 C0            1 RES     
      50 C0          10.7800     1.5752     0.5111 C0            1 RES     
      51 C0          12.1361     0.9873     0.0910 C0            1 RES     
      52 C0          13.2696     1.4805     0.9812 C0            1 RES     
      53 H4           2.9061     0.8309     0.6846 H4            1 RES     
      54 H5           3.5947    -1.1523     0.5975 H5            1 RES     
      55 H4           0.2755     2.6540    -2.7676 H4            1 RES     
      56 H6           2.3182     4.7332     0.9883 H6            1 RES     
      57 H6           1.4152     5.2464    -0.5142 H6            1 RES     
      58 H6           0.3029     5.0017     2.3321 H6            1 RES     
      59 H6          -0.9057     6.3606    -0.1626 H6            1 RES     
      60 H6          -1.2902     4.7314     0.4724 H6            1 RES     
      61 H6          -1.8965     5.7725     2.7371 H6            1 RES     
      62 H6          -1.8616     7.3749     1.8967 H6            1 RES     
      63 H6          -3.5038     6.3662     0.2379 H6            1 RES     
      64 H6          -3.5153     4.8473     1.1908 H6            1 RES     
      65 H6          -4.5099     7.6480     1.9706 H6            1 RES     
      66 H6          -4.4686     6.2701     3.1438 H6            1 RES     
      67 H6          -5.9433     6.0762     0.4434 H6            1 RES     
      68 H6          -6.0118     4.9329     1.7966 H6            1 RES     
      69 H6          -7.1491     6.7557     3.1682 H6            1 RES     
      70 H6          -7.0076     7.8651     1.7392 H6            1 RES     
      71 H6          -8.0317     6.3916     1.6299 H6            1 RES     
      72 H6           1.9981     6.4764     2.4823 H6            1 RES     
      73 H6           2.0397     6.9996     0.8344 H6            1 RES     
      74 H6           0.0388     8.3263     2.8143 H6            1 RES     
      75 H6           1.7506     8.5949     2.6540 H6            1 RES     
      76 H6           1.4629     8.8784     0.0735 H6            1 RES     
      77 H6          -0.2189     9.3242     0.4352 H6            1 RES     
      78 H6           0.8104    11.1994     1.9786 H6            1 RES     
      79 H6           2.4030    10.4389     1.7091 H6            1 RES     
      80 H6           2.1786    10.8334    -0.7812 H6            1 RES     
      81 H6           0.8007    11.9141    -0.4119 H6            1 RES     
      82 H6           3.0710    13.0319    -0.7351 H6            1 RES     
      83 H6           3.7727    12.0676     0.5666 H6            1 RES     
      84 H6           2.3601    13.1812     2.2730 H6            1 RES     
      85 H6           1.4807    14.1002     1.0072 H6            1 RES     
      86 H6           3.6027    15.2251     0.3044 H6            1 RES     
      87 H6           4.5091    14.3176     1.5719 H6            1 RES     
      88 H6           3.2385    15.5134     2.0426 H6            1 RES     
      89 H6           2.5124     1.9231    -1.4094 H6            1 RES     
      90 H6           2.1390     3.5825    -1.8573 H6            1 RES     
      91 H6           4.2226     3.5049    -2.0923 H6            1 RES     
      92 H6           4.3154     4.7987     0.6833 H6            1 RES     
      93 H6           3.6104     5.5385    -0.8408 H6            1 RES     
      94 H6           6.5409     4.8161    -0.3111 H6            1 RES     
      95 H6           5.8341     5.4176    -1.8719 H6            1 RES     
      96 H6           6.8523     7.2331    -0.6871 H6            1 RES     
      97 H6           5.0604     7.4796    -0.7415 H6            1 RES     
      98 H6           6.7230     6.4260     1.6302 H6            1 RES     
      99 H6           4.9526     6.7663     1.6938 H6            1 RES     
     100 H6           7.1826     8.8452     1.1131 H6            1 RES     
     101 H6           6.4039     8.5683     2.7102 H6            1 RES     
     102 H6           5.4162    10.5266     1.6031 H6            1 RES     
     103 H6           4.2111     9.2014     1.8339 H6            1 RES     
     104 H6           4.8888     9.5417     0.2018 H6            1 RES     
     105 H6           5.4334     2.5483     0.5086 H6            1 RES     
     106 H6           4.6171     1.3271    -0.5277 H6            1 RES     
     107 H6           5.7197     1.8764    -2.5161 H6            1 RES     
     108 H6           6.6561     3.2061    -1.8061 H6            1 RES     
     109 H6           7.8963     1.2166    -2.2660 H6            1 RES     
     110 H6           6.9945     0.2319    -1.0668 H6            1 RES     
     111 H6           7.9221     1.6497     0.7862 H6            1 RES     
     112 H6           8.5325     2.8540    -0.4125 H6            1 RES     
     113 H6          10.0169     1.2387    -1.4645 H6            1 RES     
     114 H6           9.5600    -0.0468    -0.2809 H6            1 RES     
     115 H6          10.5382     1.3061     1.5623 H6            1 RES     
     116 H6          10.8406     2.6830     0.4274 H6            1 RES     
     117 H6          12.3571     1.2965    -0.9557 H6            1 RES     
     118 H6          12.0998    -0.1227     0.1308 H6            1 RES     
     119 H6          13.1054     1.1508     2.0281 H6            1 RES     
     120 H6          13.3351     2.5889     0.9470 H6            1 RES     
     121 H6          14.2309     1.0580     0.6182 H6            1 RES     
     122 C0          -3.4572    10.7715    -3.2245 C0            1 RES     
     123 C1          -4.6946    10.2837    -3.9598 C1            1 RES     
     124 C1          -5.5779     9.7543    -3.1680 C1            1 RES     
     125 C1          -5.0661     9.6680    -1.7813 C1            1 RES     
     126 C1          -3.5350     9.8482    -1.9818 C1            1 RES     
     127 C1          -3.0242     8.4923    -2.2750 C1            1 RES     
     128 C1          -3.8458     7.4749    -2.0543 C1            1 RES     
     129 S2          -5.3689     7.9710    -1.2543 S2            1 RES     
     130 C1          -3.4475     6.0584    -2.2453 C1            1 RES     
     131 C1          -2.0965     5.7520    -2.5103 C1            1 RES     
     132 N3          -1.6535     4.4843    -2.4497 N3            1 RES     
     133 C1          -2.4563     3.4218    -2.1950 C1            1 RES     
     134 C1          -3.8277     3.6333    -2.0971 C1            1 RES     
     135 C1          -4.3308     4.9731    -2.0677 C1            1 RES     
     136 N3          -5.6681     5.0710    -1.8846 N3            1 RES     
     137 S2          -6.1209     3.4883    -1.7351 S2            1 RES     
     138 N3          -4.7387     2.6498    -1.8949 N3            1 RES     
     139 S2          -6.8324     8.7419    -3.9762 S2            1 RES     
     140 C1          -6.4063     9.5461    -5.5680 C1            1 RES     
     141 C1          -4.9494     9.9011    -5.3636 C1            1 RES     
     142 C0          -3.4701    12.2590    -2.7013 C0            1 RES     
     143 C0          -4.3611    12.9146    -1.5872 C0            1 RES     
     144 C0          -5.7571    13.3515    -2.0736 C0            1 RES     
     145 C0          -6.7548    13.4319    -0.8929 C0            1 RES     
     146 C0          -8.2052    13.6372    -1.3556 C0            1 RES     
     147 C0          -9.2074    13.2004    -0.2667 C0            1 RES     
     148 C0         -10.6702    13.1881    -0.7491 C0            1 RES     
     149 C0         -11.3444    14.5571    -0.7063 C0            1 RES     
     150 C0          -3.4843    14.0247    -0.8623 C0            1 RES     
     151 C0          -3.8862    15.4725    -0.4657 C0            1 RES     
     152 C0          -3.8405    16.4877    -1.6392 C0            1 RES     
     153 C0          -3.3339    17.8880    -1.1824 C0            1 RES     
     154 C0          -2.9424    18.7589    -2.3934 C0            1 RES     
     155 C0          -1.9028    19.8645    -2.0869 C0            1 RES     
     156 C0          -2.3433    20.9531    -1.1059 C0            1 RES     
     157 C0          -1.2677    22.0445    -1.0354 C0            1 RES     
     158 C0          -2.2339    10.6228    -4.2318 C0            1 RES     
     159 C0          -0.7086    11.0233    -4.0686 C0            1 RES     
     160 C0          -0.4559    12.4480    -3.5048 C0            1 RES     
     161 C0           0.9432    13.0108    -3.7086 C0            1 RES     
     162 C0           1.0523    14.4772    -3.2578 C0            1 RES     
     163 C0           0.7300    14.7330    -1.7872 C0            1 RES     
     164 C0           1.2263    16.0990    -1.2958 C0            1 RES     
     165 C0           0.4524    17.2630    -1.8743 C0            1 RES     
     166 C0           0.2833     9.9434    -3.4975 C0            1 RES     
     167 C0           1.4856     9.8074    -4.4743 C0            1 RES     
     168 C0           2.6463     8.8528    -4.1501 C0            1 RES     
     169 C0           3.7454     9.4596    -3.2506 C0            1 RES     
     170 C0           5.0693     8.6943    -3.4643 C0            1 RES     
     171 C0           6.2673     9.3366    -2.7482 C0            1 RES     
     172 C0           7.5634     8.5848    -3.0969 C0            1 RES     
     173 C0           8.7568     9.1239    -2.3127 C0            1 RES     
     174 H4          -2.0361     8.3995    -2.6488 H4            1 RES     
     175 H5          -1.3301     6.4897    -2.6400 H5            1 RES     
     176 H4          -4.2970    10.1901    -6.1758 H4            1 RES     
     177 H6          -2.5371    12.1922    -2.1511 H6            1 RES     
     178 H6          -3.3912    12.9764    -3.5443 H6            1 RES     
     179 H6          -4.5133    12.1173    -0.8276 H6            1 RES     
     180 H6          -5.7071    14.2831    -2.6760 H6            1 RES     
     181 H6          -6.1346    12.5411    -2.7315 H6            1 RES     
     182 H6          -6.7050    12.4454    -0.3841 H6            1 RES     
     183 H6          -6.4882    14.2094    -0.1517 H6            1 RES     
     184 H6          -8.3489    14.6910    -1.6677 H6            1 RES     
     185 H6          -8.3839    12.9655    -2.2205 H6            1 RES     
     186 H6          -9.1011    13.7941     0.6666 H6            1 RES     
     187 H6          -8.9587    12.1429    -0.0314 H6            1 RES     
     188 H6         -11.2622    12.5334    -0.0747 H6            1 RES     
     189 H6         -10.7226    12.7456    -1.7681 H6            1 RES     
     190 H6         -11.4179    14.9058     0.3438 H6            1 RES     
     191 H6         -10.7898    15.3209    -1.2730 H6            1 RES     
     192 H6         -12.3729    14.4681    -1.1207 H6            1 RES     
     193 H6          -3.0900    13.5304     0.0537 H6            1 RES     
     194 H6          -2.5604    14.1902    -1.4546 H6            1 RES     
     195 H6          -4.7802    15.5737     0.1773 H6            1 RES     
     196 H6          -3.0334    15.7577     0.1921 H6            1 RES     
     197 H6          -3.0682    16.1279    -2.3519 H6            1 RES     
     198 H6          -4.8034    16.5304    -2.1908 H6            1 RES     
     199 H6          -4.0507    18.4135    -0.5159 H6            1 RES     
     200 H6          -2.4109    17.7282    -0.5928 H6            1 RES     
     201 H6          -2.4249    18.1186    -3.1400 H6            1 RES     
     202 H6          -3.8606    19.1518    -2.8758 H6            1 RES     
     203 H6          -1.5984    20.3223    -3.0527 H6            1 RES     
     204 H6          -0.9846    19.4181    -1.6826 H6            1 RES     
     205 H6          -2.4913    20.5104    -0.0994 H6            1 RES     
     206 H6          -3.2986    21.4107    -1.4272 H6            1 RES     
     207 H6          -1.1222    22.5114    -2.0340 H6            1 RES     
     208 H6          -0.2947    21.6179    -0.7095 H6            1 RES     
     209 H6          -1.5695    22.8377    -0.3216 H6            1 RES     
     210 H6          -2.2449     9.5997    -4.6684 H6            1 RES     
     211 H6          -2.5612    11.2970    -5.0573 H6            1 RES     
     212 H6          -0.4515    11.0902    -5.1513 H6            1 RES     
     213 H6          -0.5856    12.4379    -2.4099 H6            1 RES     
     214 H6          -1.1611    13.1467    -4.0023 H6            1 RES     
     215 H6           1.6794    12.4030    -3.1387 H6            1 RES     
     216 H6           1.1956    12.9753    -4.7894 H6            1 RES     
     217 H6           2.1073    14.7660    -3.4407 H6            1 RES     
     218 H6           0.3638    15.1000    -3.8518 H6            1 RES     
     219 H6           1.2605    13.9865    -1.2143 H6            1 RES     
     220 H6          -0.3498    14.6075    -1.5769 H6            1 RES     
     221 H6           2.3069    16.2159    -1.5276 H6            1 RES     
     222 H6           1.0999    16.1461    -0.1934 H6            1 RES     
     223 H6           0.8635    18.2041    -1.4529 H6            1 RES     
     224 H6          -0.6053    17.1449    -1.6006 H6            1 RES     
     225 H6           0.5030    17.3268    -2.9677 H6            1 RES     
     226 H6           0.5668    10.1782    -2.4509 H6            1 RES     
     227 H6          -0.1739     8.9377    -3.5089 H6            1 RES     
     228 H6           1.0353     9.4200    -5.4165 H6            1 RES     
     229 H6           1.9312    10.7860    -4.7271 H6            1 RES     
     230 H6           3.1278     8.7023    -5.1417 H6            1 RES     
     231 H6           2.3047     7.8540    -3.8013 H6            1 RES     
     232 H6           3.4334     9.4638    -2.1854 H6            1 RES     
     233 H6           3.9329    10.5076    -3.5712 H6            1 RES     
     234 H6           5.3060     8.7026    -4.5514 H6            1 RES     
     235 H6           4.9483     7.6374    -3.1430 H6            1 RES     
     236 H6           6.1023     9.3189    -1.6578 H6            1 RES     
     237 H6           6.3747    10.3987    -3.0594 H6            1 RES     
     238 H6           7.7671     8.6853    -4.1854 H6            1 RES     
     239 H6           7.4539     7.5037    -2.8680 H6            1 RES     
     240 H6           8.5908     8.9935    -1.2220 H6            1 RES     
     241 H6           8.9154    10.2002    -2.5324 H6            1 RES     
     242 H6           9.6715     8.5614    -2.5975 H6            1 RES     
     243 C0          -8.0953    18.0381    -5.6123 C0            1 RES     
     244 C1          -9.3308    17.5573    -6.3651 C1            1 RES     
     245 C1         -10.2291    17.0240    -5.5932 C1            1 RES     
     246 C1          -9.7455    16.9145    -4.1995 C1            1 RES     
     247 C1          -8.2060    17.1329    -4.3478 C1            1 RES     
     248 C1          -7.6643    15.8104    -4.6584 C1            1 RES     
     249 C1          -8.4922    14.7804    -4.5646 C1            1 RES     
     250 S2         -10.0340    15.1853    -3.7700 S2            1 RES     
     251 C1          -8.1188    13.4198    -5.0006 C1            1 RES     
     252 C1          -6.8333    13.2043    -5.5218 C1            1 RES     
     253 N3          -6.4030    11.9695    -5.7744 N3            1 RES     
     254 C1          -7.1471    10.8556    -5.5890 C1            1 RES     
     255 C1          -8.4888    11.0030    -5.2129 C1            1 RES     
     256 C1          -8.9776    12.3023    -4.9068 C1            1 RES     
     257 N3         -10.2665    12.3479    -4.4797 N3            1 RES     
     258 S2         -10.7187    10.7596    -4.5118 S2            1 RES     
     259 N3          -9.3590     9.9773    -5.0236 N3            1 RES     
     260 S2         -11.4699    16.0091    -6.4285 S2            1 RES     
     261 C1         -11.0192    16.8130    -8.0074 C1            1 RES     
     262 C1          -9.5655    17.1647    -7.7733 C1            1 RES     
     263 C0          -8.0860    19.5273    -5.1064 C0            1 RES     
     264 C0          -8.9736    20.1674    -3.9859 C0            1 RES     
     265 C0         -10.3730    20.5902    -4.4703 C0            1 RES     
     266 C0         -11.3754    20.6550    -3.2949 C0            1 RES     
     267 C0         -12.8278    20.8046    -3.7736 C0            1 RES     
     268 C0         -13.8259    20.3478    -2.6899 C0            1 RES     
     269 C0         -15.2778    20.2492    -3.1961 C0            1 RES     
     270 C0         -16.0329    21.5750    -3.1778 C0            1 RES     
     271 C0          -8.1074    21.2679    -3.2387 C0            1 RES     
     272 C0          -8.5087    22.7225    -2.8795 C0            1 RES     
     273 C0          -8.4365    23.7138    -4.0691 C0            1 RES     
     274 C0          -7.9214    25.1135    -3.6247 C0            1 RES     
     275 C0          -7.5262    25.9720    -4.8415 C0            1 RES     
     276 C0          -6.4876    27.0792    -4.5381 C0            1 RES     
     277 C0          -6.9286    28.1681    -3.5580 C0            1 RES     
     278 C0          -5.8527    29.2589    -3.4882 C0            1 RES     
     279 C0          -6.8692    17.8661    -6.6273 C0            1 RES     
     280 C0          -5.3378    18.2660    -6.5074 C0            1 RES     
     281 C0          -5.0743    19.6837    -5.9420 C0            1 RES     
     282 C0          -3.6778    20.2424    -6.1715 C0            1 RES     
     283 C0          -3.5586    21.7057    -5.7189 C0            1 RES     
     284 C0          -3.8902    21.9648    -4.2527 C0            1 RES     
     285 C0          -3.3830    23.3249    -3.7582 C0            1 RES     
     286 C0          -4.1393    24.4946    -4.3450 C0            1 RES     
     287 C0          -4.3001    17.1899    -6.0011 C0            1 RES     
     288 C0          -3.1652    17.0629    -7.0656 C0            1 RES     
     289 C0          -1.9376    16.1619    -6.8360 C0            1 RES     
     290 C0          -0.7802    16.8247    -6.0529 C0            1 RES     
     291 C0           0.5498    16.0946    -6.3716 C0            1 RES     
     292 C0           1.7800    16.7247    -5.6910 C0            1 RES     
     293 C0           3.0531    15.9146    -5.9806 C0            1 RES     
     294 C0           4.2303    16.4038    -5.1358 C0            1 RES     
     295 H4          -6.6630    15.7723    -5.0096 H4            1 RES     
     296 H5          -6.1032    13.9709    -5.6820 H5            1 RES     
     297 H4          -8.8934    17.4207    -8.5798 H4            1 RES     
     298 H6          -7.1461    19.4594    -4.5669 H6            1 RES     
     299 H6          -8.0114    20.2427    -5.9512 H6            1 RES     
     300 H6          -9.1165    19.3587    -3.2372 H6            1 RES     
     301 H6         -10.3356    21.5213    -5.0742 H6            1 RES     
     302 H6         -10.7359    19.7750    -5.1302 H6            1 RES     
     303 H6         -11.2986    19.6767    -2.7740 H6            1 RES     
     304 H6         -11.1342    21.4500    -2.5629 H6            1 RES     
     305 H6         -13.0043    21.8465    -4.1037 H6            1 RES     
     306 H6         -12.9734    20.1136    -4.6300 H6            1 RES     
     307 H6         -13.7621    20.9661    -1.7688 H6            1 RES     
     308 H6         -13.5315    19.3090    -2.4269 H6            1 RES     
     309 H6         -15.2887    19.7949    -4.2107 H6            1 RES     
     310 H6         -15.8423    19.5677    -2.5250 H6            1 RES     
     311 H6         -16.1444    21.9272    -2.1321 H6            1 RES     
     312 H6         -15.5168    22.3641    -3.7438 H6            1 RES     
     313 H6         -17.0475    21.4202    -3.6068 H6            1 RES     
     314 H6          -7.7591    20.7822    -2.2999 H6            1 RES     
     315 H6          -7.1562    21.4121    -3.7914 H6            1 RES     
     316 H6          -9.4188    22.8363    -2.2616 H6            1 RES     
     317 H6          -7.6703    23.0141    -2.2059 H6            1 RES     
     318 H6          -7.6607    23.3345    -4.7682 H6            1 RES     
     319 H6          -9.3945    23.7579    -4.6295 H6            1 RES     
     320 H6          -8.6364    25.6489    -2.9641 H6            1 RES     
     321 H6          -6.9992    24.9516    -3.0335 H6            1 RES     
     322 H6          -7.0096    25.3247    -5.5827 H6            1 RES     
     323 H6          -8.4438    26.3620    -5.3269 H6            1 RES     
     324 H6          -6.1819    27.5340    -5.5048 H6            1 RES     
     325 H6          -5.5703    26.6364    -4.1304 H6            1 RES     
     326 H6          -7.0759    27.7259    -2.5511 H6            1 RES     
     327 H6          -7.8844    28.6248    -3.8784 H6            1 RES     
     328 H6          -5.7074    29.7251    -4.4872 H6            1 RES     
     329 H6          -4.8799    28.8316    -3.1625 H6            1 RES     
     330 H6          -6.1539    30.0522    -2.7744 H6            1 RES     
     331 H6          -6.8908    16.8419    -7.0621 H6            1 RES     
     332 H6          -7.2056    18.5379    -7.4520 H6            1 RES     
     333 H6          -5.1199    18.3526    -7.5976 H6            1 RES     
     334 H6          -5.1850    19.6619    -4.8451 H6            1 RES     
     335 H6          -5.7886    20.3865    -6.4202 H6            1 RES     
     336 H6          -2.9334    19.6275    -5.6192 H6            1 RES     
     337 H6          -3.4430    20.2133    -7.2559 H6            1 RES     
     338 H6          -2.5007    21.9858    -5.8976 H6            1 RES     
     339 H6          -4.2423    22.3321    -6.3134 H6            1 RES     
     340 H6          -3.3770    21.2105    -3.6779 H6            1 RES     
     341 H6          -4.9734    21.8524    -4.0537 H6            1 RES     
     342 H6          -2.2988    23.4289    -3.9791 H6            1 RES     
     343 H6          -3.5216    23.3783    -2.6583 H6            1 RES     
     344 H6          -3.7222    25.4314    -3.9201 H6            1 RES     
     345 H6          -5.2003    24.3844    -4.0801 H6            1 RES     
     346 H6          -4.0787    24.5574    -5.4376 H6            1 RES     
     347 H6          -3.9356    17.4427    -4.9836 H6            1 RES     
     348 H6          -4.7551    16.1820    -5.9568 H6            1 RES     
     349 H6          -3.6778    16.6455    -7.9619 H6            1 RES     
     350 H6          -2.7741    18.0516    -7.3655 H6            1 RES     
     351 H6          -1.5390    16.0119    -7.8638 H6            1 RES     
     352 H6          -2.2055    15.1570    -6.4424 H6            1 RES     
     353 H6          -1.0110    16.8352    -4.9655 H6            1 RES     
     354 H6          -0.6536    17.8745    -6.3948 H6            1 RES     
     355 H6           0.7287    16.1243    -7.4685 H6            1 RES     
     356 H6           0.4548    15.0288    -6.0775 H6            1 RES     
     357 H6           1.6365    16.7357    -4.6083 H6            1 RES     
     358 H6           1.9148    17.7785    -6.0166 H6            1 RES     
     359 H6           3.3046    15.9870    -7.0599 H6            1 RES     
     360 H6           2.8849    14.8448    -5.7293 H6            1 RES     
     361 H6           4.0011    16.2865    -4.0536 H6            1 RES     
     362 H6           4.4506    17.4709    -5.3445 H6            1 RES     
     363 H6           5.1315    15.7960    -5.3636 H6            1 RES     
     364 C0         -12.6771    25.2731    -8.0825 C0            1 RES     
     365 C1         -13.9003    24.7710    -8.8406 C1            1 RES     
     366 C1         -14.8035    24.2434    -8.0697 C1            1 RES     
     367 C1         -14.3366    24.1715    -6.6678 C1            1 RES     
     368 C1         -12.7956    24.3929    -6.8012 C1            1 RES     
     369 C1         -12.2480    23.0697    -7.0795 C1            1 RES     
     370 C1         -13.0775    22.0425    -6.9736 C1            1 RES     
     371 S2         -14.6240    22.4584    -6.1923 S2            1 RES     
     372 C1         -12.7092    20.6838    -7.4079 C1            1 RES     
     373 C1         -11.4229    20.4647    -7.9246 C1            1 RES     
     374 N3         -11.0060    19.2322    -8.1916 N3            1 RES     
     375 C1         -11.7605    18.1220    -8.0258 C1            1 RES     
     376 C1         -13.0985    18.2740    -7.6471 C1            1 RES     
     377 C1         -13.5779    19.5726    -7.3280 C1            1 RES     
     378 N3         -14.8690    19.6246    -6.9072 N3            1 RES     
     379 S2         -15.3335    18.0407    -6.9565 S2            1 RES     
     380 N3         -13.9775    17.2530    -7.4698 N3            1 RES     
     381 S2         -16.0139    23.1899    -8.9071 S2            1 RES     
     382 C1         -15.5727    24.0020   -10.4840 C1            1 RES     
     383 C1         -14.1200    24.3526   -10.2457 C1            1 RES     
     384 C0         -12.6867    26.7737    -7.6013 C0            1 RES     
     385 C0         -13.5633    27.3831    -6.4525 C0            1 RES     
     386 C0         -14.9795    27.7900    -6.8940 C0            1 RES     
     387 C0         -15.9619    27.7830    -5.7018 C0            1 RES     
     388 C0         -17.4178    27.9699    -6.1523 C0            1 RES     
     389 C0         -18.4074    27.4504    -5.0916 C0            1 RES     
     390 C0         -19.8668    27.4338    -5.5826 C0            1 RES     
     391 C0         -20.5534    28.7947    -5.5065 C0            1 RES     
     392 C0         -12.7133    28.4744    -5.6750 C0            1 RES     
     393 C0         -13.1223    29.9307    -5.3379 C0            1 RES     
     394 C0         -13.0319    30.9140    -6.5300 C0            1 RES     
     395 C0         -12.5198    32.3134    -6.0823 C0            1 RES     
     396 C0         -12.1287    33.1737    -7.2974 C0            1 RES     
     397 C0         -11.0923    34.2832    -6.9974 C0            1 RES     
     398 C0         -11.5267    35.3661    -6.0072 C0            1 RES     
     399 C0         -10.4516    36.4578    -5.9418 C0            1 RES     
     400 C0         -11.4441    25.0814    -9.0858 C0            1 RES     
     401 C0          -9.9119    25.4713    -8.9598 C0            1 RES     
     402 C0          -9.6471    26.8833    -8.3882 C0            1 RES     
     403 C0          -8.2523    27.4430    -8.6171 C0            1 RES     
     404 C0          -8.1397    28.9066    -8.1648 C0            1 RES     
     405 C0          -8.4793    29.1654    -6.7009 C0            1 RES     
     406 C0          -7.9817    30.5284    -6.2057 C0            1 RES     
     407 C0          -8.7412    31.6931    -6.7978 C0            1 RES     
     408 C0          -8.8785    24.3897    -8.4542 C0            1 RES     
     409 C0          -7.7439    24.2602    -9.5191 C0            1 RES     
     410 C0          -6.5145    23.3611    -9.2910 C0            1 RES     
     411 C0          -5.3566    24.0272    -8.5112 C0            1 RES     
     412 C0          -4.0255    23.2983    -8.8295 C0            1 RES     
     413 C0          -2.7959    23.9282    -8.1466 C0            1 RES     
     414 C0          -1.5232    23.1137    -8.4264 C0            1 RES     
     415 C0          -0.3508    23.5993    -7.5727 C0            1 RES     
     416 H4         -11.2457    23.0311    -7.4278 H4            1 RES     
     417 H5         -10.6848    21.2246    -8.0732 H5            1 RES     
     418 H4         -13.4330    24.5668   -11.0521 H4            1 RES     
     419 H6         -11.7383    26.7287    -7.0832 H6            1 RES     
     420 H6         -12.6341    27.4866    -8.4500 H6            1 RES     
     421 H6         -13.6769    26.5562    -5.7211 H6            1 RES     
     422 H6         -14.9693    28.7473    -7.4560 H6            1 RES     
     423 H6         -15.3390    26.9976    -7.5828 H6            1 RES     
     424 H6         -15.8798    26.7739    -5.2437 H6            1 RES     
     425 H6         -15.7067    28.5319    -4.9260 H6            1 RES     
     426 H6         -17.5904    29.0339    -6.4108 H6            1 RES     
     427 H6         -17.5804    27.3390    -7.0503 H6            1 RES     
     428 H6         -18.3172    27.9984    -4.1295 H6            1 RES     
     429 H6         -18.1345    26.3879    -4.9109 H6            1 RES     
     430 H6         -20.4545    26.7511    -4.9330 H6            1 RES     
     431 H6         -19.9072    27.0244    -6.6159 H6            1 RES     
     432 H6         -20.6311    29.1162    -4.4480 H6            1 RES     
     433 H6         -20.0036    29.5751    -6.0556 H6            1 RES     
     434 H6         -21.5796    28.7080    -5.9261 H6            1 RES     
     435 H6         -12.4125    27.9939    -4.7174 H6            1 RES     
     436 H6         -11.7374    28.6061    -6.1856 H6            1 RES     
     437 H6         -14.0493    30.0441    -4.7446 H6            1 RES     
     438 H6         -12.3003    30.2277    -4.6465 H6            1 RES     
     439 H6         -12.2505    30.5287    -7.2193 H6            1 RES     
     440 H6         -13.9855    30.9596    -7.0982 H6            1 RES     
     441 H6         -13.2369    32.8468    -5.4220 H6            1 RES     
     442 H6         -11.5981    32.1519    -5.4901 H6            1 RES     
     443 H6         -11.6126    32.5285    -8.0404 H6            1 RES     
     444 H6         -13.0494    33.5616    -7.7772 H6            1 RES     
     445 H6         -10.7985    34.7438    -7.9652 H6            1 RES     
     446 H6         -10.1703    33.8401    -6.6008 H6            1 RES     
     447 H6         -11.6638    34.9184    -5.0013 H6            1 RES     
     448 H6         -12.4859    35.8242    -6.3152 H6            1 RES     
     449 H6         -10.3160    36.9288    -6.9398 H6            1 RES     
     450 H6          -9.4754    36.0298    -5.6272 H6            1 RES     
     451 H6         -10.7471    37.2473    -5.2215 H6            1 RES     
     452 H6         -11.4664    24.0510    -9.5066 H6            1 RES     
     453 H6         -11.7728    25.7437    -9.9213 H6            1 RES     
     454 H6          -9.6902    25.5599   -10.0490 H6            1 RES     
     455 H6          -9.7591    26.8517    -7.2904 H6            1 RES     
     456 H6         -10.3629    27.5875    -8.8628 H6            1 RES     
     457 H6          -7.5070    26.8288    -8.0654 H6            1 RES     
     458 H6          -8.0177    27.4149    -9.7016 H6            1 RES     
     459 H6          -7.0827    29.1915    -8.3407 H6            1 RES     
     460 H6          -8.8252    29.5290    -8.7611 H6            1 RES     
     461 H6          -7.9648    28.4149    -6.1239 H6            1 RES     
     462 H6          -9.5626    29.0470    -6.5067 H6            1 RES     
     463 H6          -6.8971    30.6377    -6.4218 H6            1 RES     
     464 H6          -8.1258    30.5823    -5.1065 H6            1 RES     
     465 H6          -8.3313    32.6320    -6.3708 H6            1 RES     
     466 H6          -9.8034    31.5779    -6.5396 H6            1 RES     
     467 H6          -8.6731    31.7551    -7.8900 H6            1 RES     
     468 H6          -8.5121    24.6407    -7.4366 H6            1 RES     
     469 H6          -9.3374    23.3831    -8.4093 H6            1 RES     
     470 H6          -8.2577    23.8418   -10.4143 H6            1 RES     
     471 H6          -7.3538    25.2492    -9.8197 H6            1 RES     
     472 H6          -6.1172    23.2104   -10.3192 H6            1 RES     
     473 H6          -6.7800    22.3562    -8.8956 H6            1 RES     
     474 H6          -5.5875    24.0398    -7.4239 H6            1 RES     
     475 H6          -5.2316    25.0765    -8.8548 H6            1 RES     
     476 H6          -3.8454    23.3272    -9.9261 H6            1 RES     
     477 H6          -4.1208    22.2327    -8.5356 H6            1 RES     
     478 H6          -2.9432    23.9434    -7.0650 H6            1 RES     
     479 H6          -2.6576    24.9810    -8.4739 H6            1 RES     
     480 H6          -1.2639    23.1841    -9.5039 H6            1 RES     
     481 H6          -1.6963    22.0447    -8.1750 H6            1 RES     
     482 H6          -0.5883    23.4824    -6.4921 H6            1 RES     
     483 H6          -0.1255    24.6658    -7.7791 H6            1 RES     
     484 H6           0.5503    22.9886    -7.7933 H6            1 RES     
     485 C0         -17.2738    32.4120   -10.4544 C0            1 RES     
     486 C1         -18.4757    31.8780   -11.2262 C1            1 RES     
     487 C1         -19.3877    31.3557   -10.4655 C1            1 RES     
     488 C1         -18.9370    31.3105    -9.0532 C1            1 RES     
     489 C1         -17.3960    31.5488    -9.1630 C1            1 RES     
     490 C1         -16.8259    30.2329    -9.4288 C1            1 RES     
     491 C1         -17.6490    29.2008    -9.3380 C1            1 RES     
     492 S2         -19.2022    29.5999    -8.5567 S2            1 RES     
     493 C1         -17.2730    27.8531    -9.8009 C1            1 RES     
     494 C1         -15.9854    27.6504   -10.3224 C1            1 RES     
     495 N3         -15.5622    26.4257   -10.6212 N3            1 RES     
     496 C1         -16.3131    25.3107   -10.4801 C1            1 RES     
     497 C1         -17.6552    25.4498   -10.1025 C1            1 RES     
     498 C1         -18.1382    26.7390    -9.7511 C1            1 RES     
     499 N3         -19.4293    26.7776    -9.3300 N3            1 RES     
     500 S2         -19.8894    25.1939    -9.4191 S2            1 RES     
     501 N3         -18.5317    24.4225    -9.9518 N3            1 RES     
     502 S2         -20.5481    30.2524   -11.3077 S2            1 RES     
     503 C1         -20.0513    30.9778   -12.9148 C1            1 RES     
     504 C1         -18.6340    31.4084   -12.6243 C1            1 RES     
     505 C0         -17.3014    33.9089    -9.9798 C0            1 RES     
     506 C0         -18.2209    34.5484    -8.8792 C0            1 RES     
     507 C0         -19.6028    34.9574    -9.4161 C0            1 RES     
     508 C0         -20.6311    35.1616    -8.2803 C0            1 RES     
     509 C0         -22.0275    35.4189    -8.8460 C0            1 RES     
     510 C0         -23.1146    35.4536    -7.7566 C0            1 RES     
     511 C0         -24.4976    35.6716    -8.3883 C0            1 RES     
     512 C0         -25.6363    35.6234    -7.3826 C0            1 RES     
     513 C0         -17.3719    35.6623    -8.1254 C0            1 RES     
     514 C0         -17.7659    37.1239    -7.7870 C0            1 RES     
     515 C0         -17.6868    38.0961    -8.9903 C0            1 RES     
     516 C0         -17.1608    39.4950    -8.5611 C0            1 RES     
     517 C0         -16.7640    40.3396    -9.7853 C0            1 RES     
     518 C0         -15.7249    41.4491    -9.4879 C0            1 RES     
     519 C0         -16.1619    42.5368    -8.5054 C0            1 RES     
     520 C0         -15.0817    43.6233    -8.4320 C0            1 RES     
     521 C0         -16.0335    32.2341   -11.4516 C0            1 RES     
     522 C0         -14.5118    32.6492   -11.3413 C0            1 RES     
     523 C0         -14.2654    34.0677   -10.7830 C0            1 RES     
     524 C0         -12.8753    34.6342   -11.0263 C0            1 RES     
     525 C0         -12.7682    36.1021   -10.5918 C0            1 RES     
     526 C0         -13.1112    36.3713    -9.1304 C0            1 RES     
     527 C0         -12.6075    37.7339    -8.6432 C0            1 RES     
     528 C0         -13.3567    38.8954    -9.2519 C0            1 RES     
     529 C0         -13.4624    31.5789   -10.8481 C0            1 RES     
     530 C0         -12.3480    31.4488   -11.9334 C0            1 RES     
     531 C0         -11.1162    30.5510   -11.7225 C0            1 RES     
     532 C0          -9.9543    31.2172   -10.9515 C0            1 RES     
     533 C0          -8.6266    30.4873   -11.2774 C0            1 RES     
     534 C0          -7.3944    31.1196   -10.6026 C0            1 RES     
     535 C0          -6.1239    30.3032   -10.8845 C0            1 RES     
     536 C0          -4.9476    30.7935   -10.0393 C0            1 RES     
     537 H4         -15.8218    30.2075    -9.7759 H4            1 RES     
     538 H5         -15.2469    28.4150   -10.4479 H5            1 RES     
     539 H4         -17.9270    31.6250   -13.4125 H4            1 RES     
     540 H6         -16.3620    33.8707    -9.4347 H6            1 RES     
     541 H6         -17.2276    34.6107   -10.8364 H6            1 RES     
     542 H6         -18.3947    33.7587    -8.1171 H6            1 RES     
     543 H6         -19.5194    35.8461   -10.0773 H6            1 RES     
     544 H6         -19.9808    34.1111   -10.0285 H6            1 RES     
     545 H6         -20.6670    34.2340    -7.6689 H6            1 RES     
     546 H6         -20.3541    36.0027    -7.6219 H6            1 RES     
     547 H6         -22.0051    36.3859    -9.3880 H6            1 RES     
     548 H6         -22.2779    34.5972    -9.5533 H6            1 RES     
     549 H6         -22.9033    36.2691    -7.0315 H6            1 RES     
     550 H6         -23.1133    34.4803    -7.2200 H6            1 RES     
     551 H6         -24.5230    36.6720    -8.8645 H6            1 RES     
     552 H6         -24.6827    34.8806    -9.1498 H6            1 RES     
     553 H6         -25.6699    34.6326    -6.8844 H6            1 RES     
     554 H6         -25.5169    36.4263    -6.6268 H6            1 RES     
     555 H6         -26.5962    35.7814    -7.9224 H6            1 RES     
     556 H6         -17.0415    35.1859    -7.1754 H6            1 RES     
     557 H6         -16.4090    35.8038    -8.6595 H6            1 RES     
     558 H6         -18.6690    37.2624    -7.1659 H6            1 RES     
     559 H6         -16.9274    37.4185    -7.1151 H6            1 RES     
     560 H6         -16.9153    37.7019    -9.6859 H6            1 RES     
     561 H6         -18.6460    38.1404    -9.5493 H6            1 RES     
     562 H6         -17.8717    40.0406    -7.9042 H6            1 RES     
     563 H6         -16.2381    39.3322    -7.9709 H6            1 RES     
     564 H6         -16.2485    39.6850   -10.5210 H6            1 RES     
     565 H6         -17.6832    40.7231   -10.2726 H6            1 RES     
     566 H6         -15.4198    41.9034   -10.4549 H6            1 RES     
     567 H6         -14.8073    41.0086    -9.0814 H6            1 RES     
     568 H6         -16.3090    42.0927    -7.4992 H6            1 RES     
     569 H6         -17.1170    42.9948    -8.8247 H6            1 RES     
     570 H6         -14.9338    44.0923    -9.4291 H6            1 RES     
     571 H6         -14.1106    43.1909    -8.1072 H6            1 RES     
     572 H6         -15.3795    44.4150    -7.7150 H6            1 RES     
     573 H6         -16.0352    31.2006   -11.8649 H6            1 RES     
     574 H6         -16.3736    32.8881   -12.2898 H6            1 RES     
     575 H6         -14.3001    32.7400   -12.4328 H6            1 RES     
     576 H6         -14.3815    34.0478    -9.6862 H6            1 RES     
     577 H6         -14.9886    34.7599   -11.2635 H6            1 RES     
     578 H6         -12.1236    34.0302   -10.4720 H6            1 RES     
     579 H6         -12.6445    34.5957   -12.1114 H6            1 RES     
     580 H6         -11.7117    36.3879   -10.7705 H6            1 RES     
     581 H6         -13.4544    36.7163   -11.1970 H6            1 RES     
     582 H6         -12.6018    35.6234    -8.5458 H6            1 RES     
     583 H6         -14.1968    36.2581    -8.9390 H6            1 RES     
     584 H6         -11.5213    37.8351    -8.8548 H6            1 RES     
     585 H6         -12.7574    37.7970    -7.5451 H6            1 RES     
     586 H6         -12.9462    39.8371    -8.8317 H6            1 RES     
     587 H6         -14.4211    38.7842    -9.0002 H6            1 RES     
     588 H6         -13.2802    38.9455   -10.3444 H6            1 RES     
     589 H6         -13.0792    31.8388    -9.8402 H6            1 RES     
     590 H6         -13.9158    30.5704   -10.7866 H6            1 RES     
     591 H6         -12.8754    31.0282   -12.8197 H6            1 RES     
     592 H6         -11.9636    32.4386   -12.2402 H6            1 RES     
     593 H6         -10.7292    30.4026   -12.7551 H6            1 RES     
     594 H6         -11.3775    29.5456   -11.3256 H6            1 RES     
     595 H6         -10.1786    31.2304    -9.8629 H6            1 RES     
     596 H6          -9.8315    32.2663   -11.2968 H6            1 RES     
     597 H6          -8.4531    30.5136   -12.3750 H6            1 RES     
     598 H6          -8.7208    29.4223   -10.9807 H6            1 RES     
     599 H6          -7.5370    31.1407    -9.5202 H6            1 RES     
     600 H6          -7.2576    32.1708   -10.9355 H6            1 RES     
     601 H6          -5.8703    30.3675   -11.9638 H6            1 RES     
     602 H6          -6.2963    29.2356   -10.6265 H6            1 RES     
     603 H6          -5.1803    30.6830    -8.9570 H6            1 RES     
     604 H6          -4.7238    31.8588   -10.2531 H6            1 RES     
     605 H6          -4.0478    30.1814   -10.2607 H6            1 RES     
     606 C0         -21.9062    39.4668   -13.0333 C0            1 RES     
     607 C1         -23.1655    39.0706   -13.8025 C1            1 RES     
     608 C1         -24.0572    38.4920   -13.0594 C1            1 RES     
     609 C1         -23.5675    38.2701   -11.6867 C1            1 RES     
     610 C1         -22.0296    38.4913   -11.8307 C1            1 RES     
     611 C1         -21.4830    37.1900   -12.2074 C1            1 RES     
     612 C1         -22.3032    36.1515   -12.1715 C1            1 RES     
     613 S2         -23.8710    36.5121   -11.4152 S2            1 RES     
     614 C1         -21.8916    34.7995   -12.5917 C1            1 RES     
     615 C1         -20.5932    34.6092   -13.0914 C1            1 RES     
     616 N3         -20.1198    33.3796   -13.2856 N3            1 RES     
     617 C1         -20.8340    32.2524   -13.0602 C1            1 RES     
     618 C1         -22.1883    32.3714   -12.7232 C1            1 RES     
     619 C1         -22.7205    33.6632   -12.4753 C1            1 RES     
     620 N3         -24.0156    33.6841   -12.0644 N3            1 RES     
     621 S2         -24.4201    32.0835   -12.0436 S2            1 RES     
     622 N3         -23.0297    31.3266   -12.5056 N3            1 RES     
     623 S2         -25.3770    37.6183   -13.9231 S2            1 RES     
     624 C1         -24.9241    38.5115   -15.4508 C1            1 RES     
     625 C1         -23.4539    38.8207   -15.2296 C1            1 RES     
     626 C0         -21.8433    40.9055   -12.4241 C0            1 RES     
     627 C0         -22.7129    41.5510   -11.2998 C0            1 RES     
     628 C0         -24.1206    41.8795   -11.7941 C0            1 RES     
     629 C0         -25.1208    42.1530   -10.6497 C0            1 RES     
     630 C0         -26.5353    41.8723   -11.1587 C0            1 RES     
     631 C0         -27.6564    42.2413   -10.1878 C0            1 RES     
     632 C0         -29.0046    41.8034   -10.7879 C0            1 RES     
     633 C0         -30.1931    42.3821   -10.0378 C0            1 RES     
     634 C0         -21.8360    42.7080   -10.6596 C0            1 RES     
     635 C0         -22.2542    44.1447   -10.2442 C0            1 RES     
     636 C0         -22.2359    45.1719   -11.4130 C0            1 RES     
     637 C0         -21.7332    46.5768   -10.9563 C0            1 RES     
     638 C0         -21.3488    47.4589   -12.1646 C0            1 RES     
     639 C0         -20.3155    48.5711   -11.8556 C0            1 RES     
     640 C0         -20.7658    49.6680   -10.8891 C0            1 RES     
     641 C0         -19.6922    50.7625   -10.8236 C0            1 RES     
     642 C0         -20.6872    39.3465   -14.0630 C0            1 RES     
     643 C0         -19.1575    39.7642   -13.9306 C0            1 RES     
     644 C0         -18.9056    41.1950   -13.3739 C0            1 RES     
     645 C0         -17.5079    41.7586   -13.5863 C0            1 RES     
     646 C0         -17.3904    43.2232   -13.1319 C0            1 RES     
     647 C0         -17.7228    43.4907   -11.6669 C0            1 RES     
     648 C0         -17.2005    44.8467   -11.1739 C0            1 RES     
     649 C0         -17.9509    46.0234   -11.7520 C0            1 RES     
     650 C0         -18.1125    38.7027   -13.4113 C0            1 RES     
     651 C0         -16.9652    38.5865   -14.4636 C0            1 RES     
     652 C0         -15.7330    37.6957   -14.2201 C0            1 RES     
     653 C0         -14.5831    38.3712   -13.4363 C0            1 RES     
     654 C0         -13.2495    37.6412   -13.7398 C0            1 RES     
     655 C0         -12.0214    38.2834   -13.0665 C0            1 RES     
     656 C0         -10.7482    37.4675   -13.3404 C0            1 RES     
     657 C0          -9.5717    37.9669   -12.5011 C0            1 RES     
     658 H4         -20.4677    37.1657   -12.5196 H4            1 RES     
     659 H5         -19.8848    35.3944   -13.2653 H5            1 RES     
     660 H4         -22.8103    39.1694   -16.0242 H4            1 RES     
     661 H6         -20.9104    40.7868   -11.8716 H6            1 RES     
     662 H6         -21.7606    41.6516   -13.2420 H6            1 RES     
     663 H6         -22.8359    40.7819   -10.5034 H6            1 RES     
     664 H6         -24.1268    42.6886   -12.5556 H6            1 RES     
     665 H6         -24.4661    40.9570   -12.2944 H6            1 RES     
     666 H6         -24.9516    41.4552    -9.8006 H6            1 RES     
     667 H6         -25.0094    43.1951   -10.2902 H6            1 RES     
     668 H6         -26.6854    42.4608   -12.0649 H6            1 RES     
     669 H6         -26.6080    40.7927   -11.4209 H6            1 RES     
     670 H6         -27.6340    43.3442   -10.0455 H6            1 RES     
     671 H6         -27.5171    41.7438    -9.2042 H6            1 RES     
     672 H6         -29.0939    42.1566   -11.8258 H6            1 RES     
     673 H6         -29.0610    40.6929   -10.8081 H6            1 RES     
     674 H6         -30.1926    42.0502    -8.9811 H6            1 RES     
     675 H6         -30.1578    43.4924   -10.0854 H6            1 RES     
     676 H6         -31.1306    42.0450   -10.5310 H6            1 RES     
     677 H6         -21.3655    42.2357    -9.7675 H6            1 RES     
     678 H6         -20.9545    42.8862   -11.3081 H6            1 RES     
     679 H6         -23.1330    44.2209    -9.5763 H6            1 RES     
     680 H6         -21.3905    44.4391    -9.6052 H6            1 RES     
     681 H6         -21.4672    44.8277   -12.1375 H6            1 RES     
     682 H6         -23.2038    45.2027   -11.9569 H6            1 RES     
     683 H6         -22.4475    47.0952   -10.2823 H6            1 RES     
     684 H6         -20.8037    46.4185   -10.3753 H6            1 RES     
     685 H6         -20.8267    46.8236   -12.9123 H6            1 RES     
     686 H6         -22.2657    47.8521   -12.6492 H6            1 RES     
     687 H6         -20.0017    49.0192   -12.8227 H6            1 RES     
     688 H6         -19.3995    48.1365   -11.4363 H6            1 RES     
     689 H6         -20.9192    49.2346    -9.8795 H6            1 RES     
     690 H6         -21.7197    50.1210   -11.2212 H6            1 RES     
     691 H6         -19.5411    51.2188   -11.8262 H6            1 RES     
     692 H6         -18.7199    50.3417   -10.4879 H6            1 RES     
     693 H6         -19.9994    51.5630   -10.1204 H6            1 RES     
     694 H6         -20.7087    38.3406   -14.5382 H6            1 RES     
     695 H6         -21.0281    40.0487   -14.8591 H6            1 RES     
     696 H6         -18.9343    39.8485   -15.0199 H6            1 RES     
     697 H6         -19.0204    41.1953   -12.2802 H6            1 RES     
     698 H6         -19.6166    41.8915   -13.8658 H6            1 RES     
     699 H6         -16.7686    41.1462   -13.0241 H6            1 RES     
     700 H6         -17.2606    41.7287   -14.6678 H6            1 RES     
     701 H6         -16.3304    43.4981   -13.3053 H6            1 RES     
     702 H6         -18.0693    43.8516   -13.7283 H6            1 RES     
     703 H6         -17.2183    42.7351   -11.0897 H6            1 RES     
     704 H6         -18.8056    43.3887   -11.4668 H6            1 RES     
     705 H6         -16.1164    44.9414   -11.3992 H6            1 RES     
     706 H6         -17.3334    44.9030   -10.0737 H6            1 RES     
     707 H6         -17.5221    46.9564   -11.3299 H6            1 RES     
     708 H6         -19.0089    45.9188   -11.4747 H6            1 RES     
     709 H6         -17.9044    46.0884   -12.8444 H6            1 RES     
     710 H6         -17.7626    38.9621   -12.3898 H6            1 RES     
     711 H6         -18.5553    37.6900   -13.3706 H6            1 RES     
     712 H6         -17.4648    38.1632   -15.3644 H6            1 RES     
     713 H6         -16.5797    39.5774   -14.7625 H6            1 RES     
     714 H6         -15.3273    37.5412   -15.2445 H6            1 RES     
     715 H6         -15.9971    36.6918   -13.8216 H6            1 RES     
     716 H6         -14.8201    38.3932   -12.3503 H6            1 RES     
     717 H6         -14.4581    39.4177   -13.7887 H6            1 RES     
     718 H6         -13.0669    37.6551   -14.8363 H6            1 RES     
     719 H6         -13.3435    36.5800   -13.4297 H6            1 RES     
     720 H6         -12.1670    38.3140   -11.9849 H6            1 RES     
     721 H6         -11.8858    39.3317   -13.4089 H6            1 RES     
     722 H6         -10.4947    37.5234   -14.4203 H6            1 RES     
     723 H6         -10.9182    36.4018   -13.0732 H6            1 RES     
     724 H6          -9.8021    37.8639   -11.4176 H6            1 RES     
     725 H6          -9.3499    39.0309   -12.7236 H6            1 RES     
     726 H6          -8.6709    37.3550   -12.7198 H6            1 RES     
     727 C0         -26.4230    46.9247   -15.3259 C0            1 RES     
     728 C1         -27.6630    46.4136   -16.0500 C1            1 RES     
     729 C1         -28.5771    45.9561   -15.2519 C1            1 RES     
     730 C1         -28.0757    45.9031   -13.8565 C1            1 RES     
     731 C1         -26.5297    46.0826   -14.0231 C1            1 RES     
     732 C1         -26.0172    44.7524   -14.3115 C1            1 RES     
     733 C1         -26.8724    43.7517   -14.2061 C1            1 RES     
     734 S2         -28.3713    44.2086   -13.3328 S2            1 RES     
     735 C1         -26.5414    42.3934   -14.6904 C1            1 RES     
     736 C1         -25.2662    42.1628   -15.2327 C1            1 RES     
     737 N3         -24.8693    40.9313   -15.5376 N3            1 RES     
     738 C1         -25.6382    39.8306   -15.3888 C1            1 RES     
     739 C1         -26.9743    39.9971   -14.9891 C1            1 RES     
     740 C1         -27.4270    41.2967   -14.6305 C1            1 RES     
     741 N3         -28.7113    41.3641   -14.1994 N3            1 RES     
     742 S2         -29.2061    39.7906   -14.2861 S2            1 RES     
     743 N3         -27.8721    38.9891   -14.8358 N3            1 RES     
     744 S2         -29.8401    44.9251   -16.0209 S2            1 RES     
     745 C1         -29.2806    45.4764   -17.6791 C1            1 RES     
     746 C1         -27.8642    45.9217   -17.4291 C1            1 RES     
     747 C0         -26.4197    48.4260   -14.8617 C0            1 RES     
     748 C0         -27.3378    49.0353   -13.7446 C0            1 RES     
     749 C0         -28.7197    49.4393   -14.2763 C0            1 RES     
     750 C0         -29.7637    49.5744   -13.1499 C0            1 RES     
     751 C0         -31.1516    49.8256   -13.7340 C0            1 RES     
     752 C0         -32.2527    49.8165   -12.6609 C0            1 RES     
     753 C0         -33.6346    50.0092   -13.3029 C0            1 RES     
     754 C0         -34.7700    49.9416   -12.2934 C0            1 RES     
     755 C0         -26.5148    50.1296   -12.9475 C0            1 RES     
     756 C0         -26.9362    51.5853   -12.6419 C0            1 RES     
     757 C0         -26.8514    52.5308   -13.8610 C0            1 RES     
     758 C0         -26.3185    53.9272   -13.4490 C0            1 RES     
     759 C0         -25.9293    54.7556   -14.6822 C0            1 RES     
     760 C0         -24.8841    55.8581   -14.3923 C0            1 RES     
     761 C0         -25.3115    56.9367   -13.3942 C0            1 RES     
     762 C0         -24.2317    58.0213   -13.3188 C0            1 RES     
     763 C0         -25.2159    46.7004   -16.3576 C0            1 RES     
     764 C0         -23.6777    47.0561   -16.2898 C0            1 RES     
     765 C0         -23.3925    48.4587   -15.7240 C0            1 RES     
     766 C0         -21.9987    49.0125   -15.9641 C0            1 RES     
     767 C0         -21.8907    50.4733   -15.5035 C0            1 RES     
     768 C0         -22.2497    50.7166   -14.0414 C0            1 RES     
     769 C0         -21.7824    52.0834   -13.5318 C0            1 RES     
     770 C0         -22.5458    53.2388   -14.1386 C0            1 RES     
     771 C0         -22.6511    45.9604   -15.8035 C0            1 RES     
     772 C0         -21.5290    45.8287   -16.8821 C0            1 RES     
     773 C0         -20.3027    44.9210   -16.6715 C0            1 RES     
     774 C0         -19.1408    45.5751   -15.8891 C0            1 RES     
     775 C0         -17.8115    44.8456   -16.2149 C0            1 RES     
     776 C0         -16.5837    45.4634   -15.5175 C0            1 RES     
     777 C0         -15.3107    44.6494   -15.7947 C0            1 RES     
     778 C0         -14.1466    45.1235   -14.9227 C0            1 RES     
     779 H4         -25.0274    44.7002   -14.6917 H4            1 RES     
     780 H5         -24.5139    42.9082   -15.3745 H5            1 RES     
     781 H4         -27.1781    46.1246   -18.2393 H4            1 RES     
     782 H6         -25.4710    48.3984   -14.3378 H6            1 RES     
     783 H6         -26.3632    49.1286   -15.7190 H6            1 RES     
     784 H6         -27.5017    48.2332   -12.9982 H6            1 RES     
     785 H6         -28.6392    50.3555   -14.8933 H6            1 RES     
     786 H6         -29.0789    48.6210   -14.9343 H6            1 RES     
     787 H6         -29.7919    48.6206   -12.5796 H6            1 RES     
     788 H6         -29.5117    50.3918   -12.4524 H6            1 RES     
     789 H6         -31.1319    50.8078   -14.2489 H6            1 RES     
     790 H6         -31.3764    49.0196   -14.4690 H6            1 RES     
     791 H6         -32.0663    50.6260   -11.9224 H6            1 RES     
     792 H6         -32.2352    48.8359   -12.1376 H6            1 RES     
     793 H6         -33.6790    51.0058   -13.7872 H6            1 RES     
     794 H6         -33.8017    49.2132   -14.0634 H6            1 RES     
     795 H6         -34.7800    48.9533   -11.7888 H6            1 RES     
     796 H6         -34.6625    50.7496   -11.5408 H6            1 RES     
     797 H6         -35.7356    50.0776   -12.8279 H6            1 RES     
     798 H6         -26.2380    49.6578   -11.9784 H6            1 RES     
     799 H6         -25.5255    50.2648   -13.4310 H6            1 RES     
     800 H6         -27.8596    51.7184   -12.0501 H6            1 RES     
     801 H6         -26.1211    51.8999   -11.9507 H6            1 RES     
     802 H6         -26.0850    52.1202   -14.5529 H6            1 RES     
     803 H6         -27.8126    52.5749   -14.4169 H6            1 RES     
     804 H6         -27.0242    54.4810   -12.7929 H6            1 RES     
     805 H6         -25.3919    53.7658   -12.8640 H6            1 RES     
     806 H6         -25.4233    54.0949   -15.4188 H6            1 RES     
     807 H6         -26.8529    55.1386   -15.1613 H6            1 RES     
     808 H6         -24.5903    56.3189   -15.3597 H6            1 RES     
     809 H6         -23.9640    55.4064   -14.0004 H6            1 RES     
     810 H6         -25.4505    56.4833   -12.3908 H6            1 RES     
     811 H6         -26.2696    57.3991   -13.6983 H6            1 RES     
     812 H6         -24.0927    58.4992   -14.3127 H6            1 RES     
     813 H6         -23.2591    57.5845   -13.0052 H6            1 RES     
     814 H6         -24.5251    58.8053   -12.5917 H6            1 RES     
     815 H6         -25.2634    45.6660   -16.7662 H6            1 RES     
     816 H6         -25.5557    47.3612   -17.1902 H6            1 RES     
     817 H6         -23.4837    47.1342   -17.3856 H6            1 RES     
     818 H6         -23.4950    48.4145   -14.6270 H6            1 RES     
     819 H6         -24.1099    49.1686   -16.1878 H6            1 RES     
     820 H6         -21.2512    48.3948   -15.4191 H6            1 RES     
     821 H6         -21.7705    48.9887   -17.0501 H6            1 RES     
     822 H6         -20.8354    50.7689   -15.6717 H6            1 RES     
     823 H6         -22.5785    51.0936   -16.0989 H6            1 RES     
     824 H6         -21.7352    49.9660   -13.4622 H6            1 RES     
     825 H6         -23.3350    50.5851   -13.8640 H6            1 RES     
     826 H6         -20.6957    52.2090   -13.7264 H6            1 RES     
     827 H6         -21.9503    52.1287   -12.4354 H6            1 RES     
     828 H6         -22.1601    54.1807   -13.6972 H6            1 RES     
     829 H6         -23.6149    53.1091   -13.9118 H6            1 RES     
     830 H6         -22.4442    53.3059   -15.2284 H6            1 RES     
     831 H6         -22.2740    46.1982   -14.7873 H6            1 RES     
     832 H6         -23.1220    44.9583   -15.7640 H6            1 RES     
     833 H6         -22.0539    45.4190   -17.7751 H6            1 RES     
     834 H6         -21.1352    46.8165   -17.1812 H6            1 RES     
     835 H6         -19.9102    44.7780   -17.7027 H6            1 RES     
     836 H6         -20.5711    43.9139   -16.2837 H6            1 RES     
     837 H6         -19.3724    45.5785   -14.8022 H6            1 RES     
     838 H6         -19.0126    46.6274   -16.2225 H6            1 RES     
     839 H6         -17.6284    44.8880   -17.3103 H6            1 RES     
     840 H6         -17.9105    43.7762   -15.9364 H6            1 RES     
     841 H6         -16.7376    45.4653   -14.4372 H6            1 RES     
     842 H6         -16.4408    46.5198   -15.8304 H6            1 RES     
     843 H6         -15.0407    44.7314   -16.8686 H6            1 RES     
     844 H6         -15.4884    43.5780   -15.5569 H6            1 RES     
     845 H6         -14.3960    44.9951   -13.8460 H6            1 RES     
     846 H6         -13.9179    46.1921   -15.1143 H6            1 RES     
     847 H6         -13.2438    44.5142   -15.1399 H6            1 RES     
     848 C0         -31.0786    53.8971   -17.9282 C0            1 RES     
     849 C1         -32.3487    53.4810   -18.6604 C1            1 RES     
     850 C1         -33.2356    52.9206   -17.8866 C1            1 RES     
     851 C1         -32.6466    52.6438   -16.5470 C1            1 RES     
     852 C1         -31.1214    52.8834   -16.7672 C1            1 RES     
     853 C1         -30.5987    51.5744   -17.2115 C1            1 RES     
     854 C1         -31.6691    50.6508   -17.6856 C1            1 RES     
     855 S2         -32.8455    50.8455   -16.3218 S2            1 RES     
     856 C1         -31.1887    49.2634   -17.9008 C1            1 RES     
     857 C1         -29.8499    49.0730   -18.2528 C1            1 RES     
     858 N3         -29.3308    47.8443   -18.2614 N3            1 RES     
     859 C1         -30.0478    46.7249   -17.9872 C1            1 RES     
     860 C1         -31.4320    46.8375   -17.8044 C1            1 RES     
     861 C1         -32.0084    48.1296   -17.7543 C1            1 RES     
     862 N3         -33.3419    48.1652   -17.4948 N3            1 RES     
     863 S2         -33.7211    46.5645   -17.3435 S2            1 RES     
     864 N3         -32.2756    45.7987   -17.5678 N3            1 RES     
     865 S2         -34.5007    51.9463   -18.7306 S2            1 RES     
     866 C1         -34.0181    52.6835   -20.3373 C1            1 RES     
     867 C1         -32.5940    53.1313   -20.0731 C1            1 RES     
     868 C0         -31.0499    55.3398   -17.3044 C0            1 RES     
     869 C0         -31.9683    55.9752   -16.2070 C0            1 RES     
     870 C0         -33.3364    56.4234   -16.7500 C0            1 RES     
     871 C0         -34.3624    56.6269   -15.6140 C0            1 RES     
     872 C0         -35.7545    56.9292   -16.1696 C0            1 RES     
     873 C0         -36.8299    56.9338   -15.0676 C0            1 RES     
     874 C0         -38.2161    57.2043   -15.6673 C0            1 RES     
     875 C0         -39.3416    57.1078   -14.6501 C0            1 RES     
     876 C0         -31.1054    57.0867   -15.4590 C0            1 RES     
     877 C0         -31.4796    58.5604   -15.1233 C0            1 RES     
     878 C0         -31.4158    59.5375   -16.3269 C0            1 RES     
     879 C0         -30.9333    60.9558   -15.8980 C0            1 RES     
     880 C0         -30.5543    61.8169   -17.1212 C0            1 RES     
     881 C0         -29.5286    62.9403   -16.8253 C0            1 RES     
     882 C0         -29.9781    64.0354   -15.8565 C0            1 RES     
     883 C0         -28.9013    65.1266   -15.7851 C0            1 RES     
     884 C0         -29.8724    53.7944   -18.9622 C0            1 RES     
     885 C0         -28.3490    54.1900   -18.7907 C0            1 RES     
     886 C0         -28.0915    55.6120   -18.2263 C0            1 RES     
     887 C0         -26.6833    56.1539   -18.4289 C0            1 RES     
     888 C0         -26.5596    57.6214   -17.9869 C0            1 RES     
     889 C0         -26.9105    57.9007   -16.5286 C0            1 RES     
     890 C0         -26.3906    59.2575   -16.0385 C0            1 RES     
     891 C0         -27.1365    60.4279   -16.6319 C0            1 RES     
     892 C0         -27.3390    53.1077   -18.2471 C0            1 RES     
     893 C0         -26.2109    52.9239   -19.3117 C0            1 RES     
     894 C0         -24.9757    52.0368   -19.0615 C0            1 RES     
     895 C0         -23.8086    52.7325   -18.3184 C0            1 RES     
     896 C0         -22.4760    52.0068   -18.6407 C0            1 RES     
     897 C0         -21.2378    52.6618   -17.9957 C0            1 RES     
     898 C0         -19.9660    51.8451   -18.2772 C0            1 RES     
     899 C0         -18.7791    52.3540   -17.4575 C0            1 RES     
     900 H4         -29.6903    51.2105   -16.7552 H4            1 RES     
     901 H5         -29.1759    49.8937   -18.4510 H5            1 RES     
     902 H4         -31.9243    53.4210   -20.8698 H4            1 RES     
     903 H6         -30.1294    55.2190   -16.7292 H6            1 RES     
     904 H6         -30.9400    56.0968   -18.1073 H6            1 RES     
     905 H6         -32.1548    55.1709   -15.4605 H6            1 RES     
     906 H6         -33.2305    57.3215   -17.3947 H6            1 RES     
     907 H6         -33.7323    55.6001   -17.3794 H6            1 RES     
     908 H6         -34.4185    55.6850   -15.0262 H6            1 RES     
     909 H6         -34.0666    57.4433   -14.9325 H6            1 RES     
     910 H6         -35.7209    57.9137   -16.6804 H6            1 RES     
     911 H6         -36.0224    56.1388   -16.9053 H6            1 RES     
     912 H6         -36.5967    57.7094   -14.3061 H6            1 RES     
     913 H6         -36.8386    55.9359   -14.5781 H6            1 RES     
     914 H6         -38.2333    58.2322   -16.0797 H6            1 RES     
     915 H6         -38.4205    56.4626   -16.4719 H6            1 RES     
     916 H6         -39.3812    56.0880   -14.2146 H6            1 RES     
     917 H6         -39.2011    57.8596   -13.8468 H6            1 RES     
     918 H6         -40.3065    57.3108   -15.1650 H6            1 RES     
     919 H6         -30.7734    56.6100   -14.5102 H6            1 RES     
     920 H6         -30.1469    57.2157   -16.0037 H6            1 RES     
     921 H6         -32.3751    58.7043   -14.4919 H6            1 RES     
     922 H6         -30.6294    58.8553   -14.4664 H6            1 RES     
     923 H6         -30.6285    59.1603   -17.0141 H6            1 RES     
     924 H6         -32.3723    59.5596   -16.8912 H6            1 RES     
     925 H6         -31.6606    61.4825   -15.2436 H6            1 RES     
     926 H6         -30.0099    60.8177   -15.3026 H6            1 RES     
     927 H6         -30.0309    61.1715   -17.8591 H6            1 RES     
     928 H6         -31.4755    62.1960   -17.6109 H6            1 RES     
     929 H6         -29.2216    63.3877   -17.7946 H6            1 RES     
     930 H6         -28.6087    62.5142   -16.4092 H6            1 RES     
     931 H6         -30.1314    63.6003   -14.8474 H6            1 RES     
     932 H6         -30.9320    64.4884   -16.1879 H6            1 RES     
     933 H6         -28.7453    65.5857   -16.7855 H6            1 RES     
     934 H6         -27.9314    64.7011   -15.4482 H6            1 RES     
     935 H6         -29.2067    65.9253   -15.0790 H6            1 RES     
     936 H6         -29.8854    52.7900   -19.4412 H6            1 RES     
     937 H6         -30.2085    54.5059   -19.7518 H6            1 RES     
     938 H6         -28.1016    54.2818   -19.8741 H6            1 RES     
     939 H6         -28.2267    55.6132   -17.1347 H6            1 RES     
     940 H6         -28.7879    56.3162   -18.7281 H6            1 RES     
     941 H6         -25.9554    55.5358   -17.8584 H6            1 RES     
     942 H6         -26.4244    56.1108   -19.5074 H6            1 RES     
     943 H6         -25.4972    57.8929   -18.1537 H6            1 RES     
     944 H6         -27.2313    58.2458   -18.5951 H6            1 RES     
     945 H6         -26.4146    57.1501   -15.9397 H6            1 RES     
     946 H6         -27.9976    57.8018   -16.3420 H6            1 RES     
     947 H6         -25.3045    59.3511   -16.2545 H6            1 RES     
     948 H6         -26.5339    59.3197   -14.9397 H6            1 RES     
     949 H6         -26.7167    61.3654   -16.2105 H6            1 RES     
     950 H6         -28.1970    60.3192   -16.3659 H6            1 RES     
     951 H6         -27.0769    60.4851   -17.7243 H6            1 RES     
     952 H6         -26.9535    53.3999   -17.2479 H6            1 RES     
     953 H6         -27.8354    52.1205   -18.1374 H6            1 RES     
     954 H6         -26.7332    52.4756   -20.1868 H6            1 RES     
     955 H6         -25.8197    53.9031   -19.6481 H6            1 RES     
     956 H6         -24.5889    51.8533   -20.0885 H6            1 RES     
     957 H6         -25.2326    51.0443   -18.6314 H6            1 RES     
     958 H6         -24.0197    52.7709   -17.2275 H6            1 RES     
     959 H6         -23.6965    53.7735   -18.6906 H6            1 RES     
     960 H6         -22.3145    52.0095   -19.7405 H6            1 RES     
     961 H6         -22.5591    50.9484   -18.3195 H6            1 RES     
     962 H6         -21.3663    52.7085   -16.9119 H6            1 RES     
     963 H6         -21.1102    53.7057   -18.3537 H6            1 RES     
     964 H6         -19.7260    51.8891   -19.3607 H6            1 RES     
     965 H6         -20.1299    50.7821   -17.9967 H6            1 RES     
     966 H6         -18.9956    52.2626   -16.3702 H6            1 RES     
     967 H6         -18.5601    53.4154   -17.6936 H6            1 RES     
     968 H6         -17.8808    51.7396   -17.6800 H6            1 RES     
     969 C0         -35.7103    61.1248   -20.4262 C0            1 RES     
     970 C1         -36.9559    60.6782   -21.1932 C1            1 RES     
     971 C1         -37.8577    60.1307   -20.4343 C1            1 RES     
     972 C1         -37.3731    59.9909   -19.0437 C1            1 RES     
     973 C1         -35.8324    60.1867   -19.1902 C1            1 RES     
     974 C1         -35.3187    58.8663   -19.5458 C1            1 RES     
     975 C1         -36.1664    57.8521   -19.4777 C1            1 RES     
     976 S2         -37.6874    58.2615   -18.6477 S2            1 RES     
     977 C1         -35.8104    56.4990   -19.9361 C1            1 RES     
     978 C1         -34.5544    56.2970   -20.5308 C1            1 RES     
     979 N3         -34.1056    55.0657   -20.7530 N3            1 RES     
     980 C1         -34.8113    53.9484   -20.4736 C1            1 RES     
     981 C1         -36.1475    54.0793   -20.0628 C1            1 RES     
     982 C1         -36.6482    55.3758   -19.7791 C1            1 RES     
     983 N3         -37.9168    55.4129   -19.2934 N3            1 RES     
     984 S2         -38.3415    53.8177   -19.2581 S2            1 RES     
     985 N3         -36.9888    53.0449   -19.8000 N3            1 RES     
     986 S2         -39.0768    59.1048   -21.2932 S2            1 RES     
     987 C1         -38.6340    59.9252   -22.8633 C1            1 RES     
     988 C1         -37.1872    60.3076   -22.6080 C1            1 RES     
     989 C0         -35.6649    62.5915   -19.8730 C0            1 RES     
     990 C0         -36.5281    63.2296   -18.7380 C0            1 RES     
     991 C0         -37.9238    63.6744   -19.2060 C0            1 RES     
     992 C0         -38.9083    63.7229   -18.0168 C0            1 RES     
     993 C0         -40.3653    63.8841   -18.4711 C0            1 RES     
     994 C0         -41.3406    63.3784   -17.3890 C0            1 RES     
     995 C0         -42.8003    63.3033   -17.8697 C0            1 RES     
     996 C0         -43.5335    64.6395   -17.8161 C0            1 RES     
     997 C0         -35.6339    64.3174   -18.0069 C0            1 RES     
     998 C0         -36.0209    65.7659   -17.6097 C0            1 RES     
     999 C0         -35.9923    66.7720   -18.7899 C0            1 RES     
    1000 C0         -35.4944    68.1776   -18.3460 C0            1 RES     
    1001 C0         -35.1204    69.0436   -19.5662 C0            1 RES     
    1002 C0         -34.0858    70.1563   -19.2702 C0            1 RES     
    1003 C0         -34.5315    71.2450   -18.2931 C0            1 RES     
    1004 C0         -33.4598    72.3398   -18.2237 C0            1 RES     
    1005 C0         -34.4795    60.9662   -21.4391 C0            1 RES     
    1006 C0         -32.9443    61.3570   -21.2994 C0            1 RES     
    1007 C0         -32.6769    62.7773   -20.7349 C0            1 RES     
    1008 C0         -31.2753    63.3285   -20.9489 C0            1 RES     
    1009 C0         -31.1509    64.7891   -20.4876 C0            1 RES     
    1010 C0         -31.4831    65.0435   -19.0204 C0            1 RES     
    1011 C0         -30.9696    66.3999   -18.5197 C0            1 RES     
    1012 C0         -31.7249    67.5762   -19.0956 C0            1 RES     
    1013 C0         -31.9150    60.2801   -20.7761 C0            1 RES     
    1014 C0         -30.7651    60.1494   -21.8249 C0            1 RES     
    1015 C0         -29.5369    59.2521   -21.5789 C0            1 RES     
    1016 C0         -28.3814    59.9227   -20.7978 C0            1 RES     
    1017 C0         -27.0484    59.1928   -21.1099 C0            1 RES     
    1018 C0         -25.8174    59.8278   -20.4330 C0            1 RES     
    1019 C0         -24.5458    59.0093   -20.7062 C0            1 RES     
    1020 C0         -23.3715    59.5009   -19.8582 C0            1 RES     
    1021 H4         -34.3169    58.8155   -19.8949 H4            1 RES     
    1022 H5         -33.8522    57.0726   -20.7607 H5            1 RES     
    1023 H4         -36.5125    60.5818   -23.4056 H4            1 RES     
    1024 H6         -34.7297    62.4802   -19.3291 H6            1 RES     
    1025 H6         -35.5746    63.3270   -20.6980 H6            1 RES     
    1026 H6         -36.6705    62.4174   -17.9915 H6            1 RES     
    1027 H6         -37.8839    64.6138   -19.7959 H6            1 RES     
    1028 H6         -38.3011    62.8740   -19.8762 H6            1 RES     
    1029 H6         -38.8281    62.7338   -17.5171 H6            1 RES     
    1030 H6         -38.6526    64.5008   -17.2706 H6            1 RES     
    1031 H6         -40.5495    64.9379   -18.7588 H6            1 RES     
    1032 H6         -40.5229    63.2272   -19.3524 H6            1 RES     
    1033 H6         -41.2581    63.9580   -16.4446 H6            1 RES     
    1034 H6         -41.0427    62.3289   -17.1753 H6            1 RES     
    1035 H6         -42.8326    62.8689   -18.8924 H6            1 RES     
    1036 H6         -43.3601    62.6152   -17.2012 H6            1 RES     
    1037 H6         -43.6173    64.9777   -16.7633 H6            1 RES     
    1038 H6         -43.0141    65.4277   -18.3811 H6            1 RES     
    1039 H6         -44.5578    64.5076   -18.2283 H6            1 RES     
    1040 H6         -35.2390    63.8147   -17.0956 H6            1 RES     
    1041 H6         -34.7122    64.4735   -18.6030 H6            1 RES     
    1042 H6         -36.9088    65.8670   -16.9580 H6            1 RES     
    1043 H6         -35.1574    66.0505   -16.9653 H6            1 RES     
    1044 H6         -35.2229    66.4126   -19.5064 H6            1 RES     
    1045 H6         -36.9602    66.8047   -19.3328 H6            1 RES     
    1046 H6         -36.2103    68.7007   -17.6768 H6            1 RES     
    1047 H6         -34.5656    68.0280   -17.7626 H6            1 RES     
    1048 H6         -34.6055    68.4031   -20.3145 H6            1 RES     
    1049 H6         -36.0450    69.4283   -20.0436 H6            1 RES     
    1050 H6         -33.7848    70.6106   -20.2383 H6            1 RES     
    1051 H6         -33.1641    69.7184   -18.8652 H6            1 RES     
    1052 H6         -34.6784    70.8042   -17.2856 H6            1 RES     
    1053 H6         -35.4886    71.6963   -18.6178 H6            1 RES     
    1054 H6         -33.3143    72.8046   -19.2231 H6            1 RES     
    1055 H6         -32.4861    71.9164   -17.8954 H6            1 RES     
    1056 H6         -33.7652    73.1331   -17.5117 H6            1 RES     
    1057 H6         -34.5056    59.9516   -21.8953 H6            1 RES     
    1058 H6         -34.8063    61.6561   -22.2522 H6            1 RES     
    1059 H6         -32.7147    61.4390   -22.3874 H6            1 RES     
    1060 H6         -32.7926    62.7632   -19.6393 H6            1 RES     
    1061 H6         -33.3821    63.4835   -21.2213 H6            1 RES     
    1062 H6         -30.5393    62.7080   -20.3915 H6            1 RES     
    1063 H6         -31.0312    63.3018   -22.0314 H6            1 RES     
    1064 H6         -30.0910    65.0642   -20.6612 H6            1 RES     
    1065 H6         -31.8301    65.4218   -21.0800 H6            1 RES     
    1066 H6         -30.9786    64.2806   -18.4480 H6            1 RES     
    1067 H6         -32.5657    64.9384   -18.8232 H6            1 RES     
    1068 H6         -29.8857    66.5018   -18.7425 H6            1 RES     
    1069 H6         -31.1058    66.4482   -17.4194 H6            1 RES     
    1070 H6         -31.3054    68.5099   -18.6659 H6            1 RES     
    1071 H6         -32.7844    67.4663   -18.8271 H6            1 RES     
    1072 H6         -31.6712    67.6472   -20.1876 H6            1 RES     
    1073 H6         -31.5635    60.5363   -19.7543 H6            1 RES     
    1074 H6         -32.3717    59.2731   -20.7334 H6            1 RES     
    1075 H6         -31.2670    59.7271   -22.7249 H6            1 RES     
    1076 H6         -30.3723    61.1366   -22.1265 H6            1 RES     
    1077 H6         -29.1329    59.0939   -22.6032 H6            1 RES     
    1078 H6         -29.8052    58.2498   -21.1790 H6            1 RES     
    1079 H6         -28.6144    59.9404   -19.7108 H6            1 RES     
    1080 H6         -28.2558    60.9705   -21.1459 H6            1 RES     
    1081 H6         -26.8678    59.2144   -22.2064 H6            1 RES     
    1082 H6         -27.1437    58.1290   -20.8094 H6            1 RES     
    1083 H6         -25.9615    59.8530   -19.3518 H6            1 RES     
    1084 H6         -25.6784    60.8776   -20.7691 H6            1 RES     
    1085 H6         -24.2876    59.0692   -21.7846 H6            1 RES     
    1086 H6         -24.7201    57.9429   -20.4446 H6            1 RES     
    1087 H6         -23.6075    59.3943   -18.7762 H6            1 RES     
    1088 H6         -23.1447    60.5650   -20.0746 H6            1 RES     
    1089 H6         -22.4717    58.8866   -20.0744 H6            1 RES     
    1090 C0         -40.2539    68.3237   -22.7448 C0            1 RES     
    1091 C1         -41.5191    67.8602   -23.4623 C1            1 RES     
    1092 C1         -42.4035    67.3497   -22.6606 C1            1 RES     
    1093 C1         -41.8859    67.2369   -21.2810 C1            1 RES     
    1094 C1         -40.3455    67.4373   -21.4680 C1            1 RES     
    1095 C1         -39.8252    66.1194   -21.7947 C1            1 RES     
    1096 C1         -40.6693    65.1062   -21.7043 C1            1 RES     
    1097 S2         -42.1814    65.5134   -20.8567 S2            1 RES     
    1098 C1         -40.3319    63.7620   -22.1950 C1            1 RES     
    1099 C1         -39.0828    63.5591   -22.8026 C1            1 RES     
    1100 N3         -38.6677    62.3320   -23.0986 N3            1 RES     
    1101 C1         -39.3987    61.2179   -22.8805 C1            1 RES     
    1102 C1         -40.7238    61.3587   -22.4344 C1            1 RES     
    1103 C1         -41.1911    62.6507   -22.0794 C1            1 RES     
    1104 N3         -42.4549    62.6940   -21.5817 N3            1 RES     
    1105 S2         -42.9156    61.1091   -21.6171 S2            1 RES     
    1106 N3         -41.5875    60.3327   -22.2136 N3            1 RES     
    1107 S2         -43.7416    66.4206   -23.4377 S2            1 RES     
    1108 C1         -43.3099    67.2166   -25.0248 C1            1 RES     
    1109 C1         -41.8303    67.5034   -24.8631 C1            1 RES     
    1110 C0         -40.2215    69.8034   -22.2336 C0            1 RES     
    1111 C0         -41.0870    70.4277   -21.0909 C0            1 RES     
    1112 C0         -42.5093    70.7364   -21.5574 C0            1 RES     
    1113 C0         -43.5093    70.9341   -20.3976 C0            1 RES     
    1114 C0         -44.9196    70.6531   -20.9178 C0            1 RES     
    1115 C0         -46.0470    70.9369   -19.9274 C0            1 RES     
    1116 C0         -47.3838    70.5058   -20.5574 C0            1 RES     
    1117 C0         -48.5854    70.9937   -19.7651 C0            1 RES     
    1118 C0         -40.2341    71.5790   -20.4207 C0            1 RES     
    1119 C0         -40.6820    73.0104   -20.0415 C0            1 RES     
    1120 C0         -40.6568    74.0095   -21.2295 C0            1 RES     
    1121 C0         -40.1273    75.4068   -20.7940 C0            1 RES     
    1122 C0         -39.7425    76.2659   -22.0134 C0            1 RES     
    1123 C0         -38.6964    77.3671   -21.7137 C0            1 RES     
    1124 C0         -39.1303    78.4541   -20.7279 C0            1 RES     
    1125 C0         -38.0527    79.5427   -20.6584 C0            1 RES     
    1126 C0         -39.0568    68.1463   -23.7956 C0            1 RES     
    1127 C0         -37.5185    68.5408   -23.7173 C0            1 RES     
    1128 C0         -37.2426    69.9595   -23.1573 C0            1 RES     
    1129 C0         -35.8519    70.5286   -23.3941 C0            1 RES     
    1130 C0         -35.7394    71.9892   -22.9252 C0            1 RES     
    1131 C0         -36.0743    72.2343   -21.4568 C0            1 RES     
    1132 C0         -35.5832    73.5959   -20.9494 C0            1 RES     
    1133 C0         -36.3426    74.7651   -21.5351 C0            1 RES     
    1134 C0         -36.4752    67.4671   -23.2195 C0            1 RES     
    1135 C0         -35.3327    67.3618   -24.2801 C0            1 RES     
    1136 C0         -34.0974    66.4689   -24.0555 C0            1 RES     
    1137 C0         -32.9444    67.1326   -23.2655 C0            1 RES     
    1138 C0         -31.6099    66.4083   -23.5837 C0            1 RES     
    1139 C0         -30.3825    67.0312   -22.8897 C0            1 RES     
    1140 C0         -29.1097    66.2157   -23.1671 C0            1 RES     
    1141 C0         -27.9419    66.6895   -22.2999 C0            1 RES     
    1142 H4         -38.8311    66.0798   -22.1690 H4            1 RES     
    1143 H5         -38.3631    64.3266   -22.9979 H5            1 RES     
    1144 H4         -41.1951    67.7744   -25.6946 H4            1 RES     
    1145 H6         -39.2688    69.7502   -21.7197 H6            1 RES     
    1146 H6         -40.1849    70.5177   -23.0835 H6            1 RES     
    1147 H6         -41.1823    69.6484   -20.3038 H6            1 RES     
    1148 H6         -42.5417    71.5755   -22.2845 H6            1 RES     
    1149 H6         -42.8370    69.8299   -22.0951 H6            1 RES     
    1150 H6         -43.3221    70.1973   -19.5863 H6            1 RES     
    1151 H6         -43.4184    71.9583   -19.9861 H6            1 RES     
    1152 H6         -45.0864    71.2947   -21.7842 H6            1 RES     
    1153 H6         -44.9696    69.5888   -21.2422 H6            1 RES     
    1154 H6         -46.0505    72.0291   -19.7172 H6            1 RES     
    1155 H6         -45.8954    70.3825   -18.9766 H6            1 RES     
    1156 H6         -47.4841    70.9290   -21.5698 H6            1 RES     
    1157 H6         -47.4094    69.3978   -20.6533 H6            1 RES     
    1158 H6         -48.5689    70.5883   -18.7342 H6            1 RES     
    1159 H6         -48.5840    72.1050   -19.7341 H6            1 RES     
    1160 H6         -49.5148    70.6624   -20.2770 H6            1 RES     
    1161 H6         -39.8017    71.1167   -19.5046 H6            1 RES     
    1162 H6         -39.3255    71.7565   -21.0309 H6            1 RES     
    1163 H6         -41.5761    73.0880   -19.3951 H6            1 RES     
    1164 H6         -39.8377    73.3226   -19.3856 H6            1 RES     
    1165 H6         -39.9019    73.6415   -21.9568 H6            1 RES     
    1166 H6         -41.6298    74.0468   -21.7643 H6            1 RES     
    1167 H6         -40.8275    75.9428   -20.1186 H6            1 RES     
    1168 H6         -39.1938    75.2410   -20.2216 H6            1 RES     
    1169 H6         -39.2339    75.6192   -22.7607 H6            1 RES     
    1170 H6         -40.6629    76.6605   -22.4893 H6            1 RES     
    1171 H6         -38.3941    77.8239   -22.6804 H6            1 RES     
    1172 H6         -37.7783    76.9176   -21.3130 H6            1 RES     
    1173 H6         -39.2749    78.0091   -19.7218 H6            1 RES     
    1174 H6         -40.0861    78.9144   -21.0432 H6            1 RES     
    1175 H6         -37.9106    80.0116   -21.6564 H6            1 RES     
    1176 H6         -37.0797    79.1128   -20.3367 H6            1 RES     
    1177 H6         -38.3511    80.3340   -19.9411 H6            1 RES     
    1178 H6         -39.0976    67.1220   -24.2291 H6            1 RES     
    1179 H6         -39.4121    68.8168   -24.6132 H6            1 RES     
    1180 H6         -37.3225    68.6172   -24.8125 H6            1 RES     
    1181 H6         -37.3289    69.9298   -22.0595 H6            1 RES     
    1182 H6         -37.9667    70.6625   -23.6208 H6            1 RES     
    1183 H6         -35.1004    69.9144   -22.8505 H6            1 RES     
    1184 H6         -35.6245    70.5105   -24.4802 H6            1 RES     
    1185 H6         -34.6837    72.2788   -23.1008 H6            1 RES     
    1186 H6         -36.4282    72.6175   -23.5113 H6            1 RES     
    1187 H6         -35.5587    71.4786   -20.8856 H6            1 RES     
    1188 H6         -37.1559    72.1123   -21.2621 H6            1 RES     
    1189 H6         -34.4980    73.7097   -21.1595 H6            1 RES     
    1190 H6         -35.7328    73.6409   -19.8506 H6            1 RES     
    1191 H6         -35.9380    75.7009   -21.0964 H6            1 RES     
    1192 H6         -37.4074    74.6465   -21.2868 H6            1 RES     
    1193 H6         -36.2646    74.8383   -22.6259 H6            1 RES     
    1194 H6         -36.1204    67.7090   -22.1954 H6            1 RES     
    1195 H6         -36.9262    66.4558   -23.1926 H6            1 RES     
    1196 H6         -35.8376    66.9492   -25.1829 H6            1 RES     
    1197 H6         -34.9484    68.3548   -24.5715 H6            1 RES     
    1198 H6         -33.6952    66.3297   -25.0834 H6            1 RES     
    1199 H6         -34.3590    65.4591   -23.6704 H6            1 RES     
    1200 H6         -33.1799    67.1360   -22.1791 H6            1 RES     
    1201 H6         -32.8209    68.1850   -23.6003 H6            1 RES     
    1202 H6         -31.4246    66.4466   -24.6790 H6            1 RES     
    1203 H6         -31.7064    65.3402   -23.2996 H6            1 RES     
    1204 H6         -30.5347    67.0381   -21.8092 H6            1 RES     
    1205 H6         -30.2402    68.0864   -23.2073 H6            1 RES     
    1206 H6         -28.8421    66.2942   -24.2419 H6            1 RES     
    1207 H6         -29.2876    65.1450   -22.9264 H6            1 RES     
    1208 H6         -28.1879    66.5644   -21.2221 H6            1 RES     
    1209 H6         -27.7108    67.7567   -22.4951 H6            1 RES     
    1210 H6         -27.0415    66.0769   -22.5184 H6            1 RES     
    1211 C0         -44.8831    75.6599   -25.2392 C0            1 RES     
    1212 C1         -46.1066    75.0979   -25.9558 C1            1 RES     
    1213 C1         -47.0005    74.6127   -25.1473 C1            1 RES     
    1214 C1         -46.5136    74.6346   -23.7471 C1            1 RES     
    1215 C1         -44.9737    74.8495   -23.9120 C1            1 RES     
    1216 C1         -44.4346    73.5182   -24.1434 C1            1 RES     
    1217 C1         -45.2666    72.5055   -23.9761 C1            1 RES     
    1218 S2         -46.7789    72.9681   -23.1326 S2            1 RES     
    1219 C1         -44.9142    71.1326   -24.3935 C1            1 RES     
    1220 C1         -43.6074    70.8787   -24.8364 C1            1 RES     
    1221 N3         -43.2102    69.6385   -25.1016 N3            1 RES     
    1222 C1         -44.0014    68.5498   -24.9981 C1            1 RES     
    1223 C1         -45.3533    68.7351   -24.6807 C1            1 RES     
    1224 C1         -45.8137    70.0447   -24.3664 C1            1 RES     
    1225 N3         -47.1228    70.1302   -24.0169 N3            1 RES     
    1226 S2         -47.6266    68.5589   -24.1116 S2            1 RES     
    1227 N3         -46.2685    67.7374   -24.5670 N3            1 RES     
    1228 S2         -48.1951    73.4878   -25.9105 S2            1 RES     
    1229 C1         -47.7662    74.1927   -27.5458 C1            1 RES     
    1230 C1         -46.3215    74.5852   -27.3314 C1            1 RES     
    1231 C0         -44.9222    77.1848   -24.8304 C0            1 RES     
    1232 C0         -45.8044    77.7957   -23.6803 C0            1 RES     
    1233 C0         -47.2238    78.1900   -24.1289 C0            1 RES     
    1234 C0         -48.2126    78.2012   -22.9416 C0            1 RES     
    1235 C0         -49.6694    78.3528   -23.4032 C0            1 RES     
    1236 C0         -50.6558    77.8849   -22.3153 C0            1 RES     
    1237 C0         -52.1125    77.8018   -22.8090 C0            1 RES     
    1238 C0         -52.8401    79.1436   -22.8180 C0            1 RES     
    1239 C0         -44.9687    78.8707   -22.8701 C0            1 RES     
    1240 C0         -45.3849    80.3226   -22.5442 C0            1 RES     
    1241 C0         -45.2724    81.2927   -23.7401 C0            1 RES     
    1242 C0         -44.7270    82.6756   -23.2936 C0            1 RES     
    1243 C0         -44.3176    83.5191   -24.5093 C0            1 RES     
    1244 C0         -43.2723    84.6167   -24.2020 C0            1 RES     
    1245 C0         -43.7047    85.6951   -23.2063 C0            1 RES     
    1246 C0         -42.6264    86.7817   -23.1308 C0            1 RES     
    1247 C0         -43.6578    75.4252   -26.2457 C0            1 RES     
    1248 C0         -42.1196    75.7913   -26.1378 C0            1 RES     
    1249 C0         -41.8400    77.1944   -25.5648 C0            1 RES     
    1250 C0         -40.4389    77.7410   -25.7843 C0            1 RES     
    1251 C0         -40.3237    79.2028   -25.3292 C0            1 RES     
    1252 C0         -40.6861    79.4598   -23.8703 C0            1 RES     
    1253 C0         -40.2026    80.8244   -23.3680 C0            1 RES     
    1254 C0         -40.9546    81.9852   -23.9777 C0            1 RES     
    1255 C0         -41.0974    74.6978   -25.6310 C0            1 RES     
    1256 C0         -39.9633    74.5557   -26.6947 C0            1 RES     
    1257 C0         -38.7397    73.6481   -26.4636 C0            1 RES     
    1258 C0         -37.5724    74.3137   -25.6967 C0            1 RES     
    1259 C0         -36.2452    73.5814   -26.0245 C0            1 RES     
    1260 C0         -35.0084    74.2127   -25.3551 C0            1 RES     
    1261 C0         -33.7392    73.3950   -25.6419 C0            1 RES     
    1262 C0         -32.5582    73.8833   -24.8016 C0            1 RES     
    1263 H4         -43.4517    73.4656   -24.5366 H4            1 RES     
    1264 H5         -42.8332    71.6118   -24.9206 H5            1 RES     
    1265 H4         -45.6374    74.7554   -28.1506 H4            1 RES     
    1266 H6         -43.9623    77.1956   -24.3413 H6            1 RES     
    1267 H6         -44.8981    77.8660   -25.7063 H6            1 RES     
    1268 H6         -45.9226    76.9761   -22.9469 H6            1 RES     
    1269 H6         -47.2170    79.1380   -24.7065 H6            1 RES     
    1270 H6         -47.5758    77.3849   -24.8074 H6            1 RES     
    1271 H6         -48.1194    77.2079   -22.4528 H6            1 RES     
    1272 H6         -47.9736    78.9766   -22.1887 H6            1 RES     
    1273 H6         -49.8517    79.4001   -23.7164 H6            1 RES     
    1274 H6         -49.8226    77.6732   -24.2679 H6            1 RES     
    1275 H6         -50.5809    78.4969   -21.3909 H6            1 RES     
    1276 H6         -50.3629    76.8427   -22.0635 H6            1 RES     
    1277 H6         -52.1373    77.3275   -23.8150 H6            1 RES     
    1278 H6         -52.6844    77.1448   -22.1198 H6            1 RES     
    1279 H6         -52.9347    79.5263   -21.7817 H6            1 RES     
    1280 H6         -52.3129    79.9072   -23.4099 H6            1 RES     
    1281 H6         -53.8609    78.9994   -23.2357 H6            1 RES     
    1282 H6         -44.7069    78.3885   -21.9016 H6            1 RES     
    1283 H6         -43.9728    78.9968   -23.3418 H6            1 RES     
    1284 H6         -46.3227    80.4424   -21.9703 H6            1 RES     
    1285 H6         -44.5792    80.6186   -21.8335 H6            1 RES     
    1286 H6         -44.5022    80.8865   -24.4301 H6            1 RES     
    1287 H6         -46.2260    81.3579   -24.3070 H6            1 RES     
    1288 H6         -45.4335    83.2260   -22.6355 H6            1 RES     
    1289 H6         -43.8086    82.4944   -22.7016 H6            1 RES     
    1290 H6         -43.8056    82.8650   -25.2475 H6            1 RES     
    1291 H6         -45.2346    83.9097   -24.9919 H6            1 RES     
    1292 H6         -42.9706    85.0803   -25.1660 H6            1 RES     
    1293 H6         -42.3564    84.1621   -23.8037 H6            1 RES     
    1294 H6         -43.8468    85.2416   -22.2034 H6            1 RES     
    1295 H6         -44.6618    86.1575   -23.5136 H6            1 RES     
    1296 H6         -42.4879    87.2589   -24.1255 H6            1 RES     
    1297 H6         -41.6531    86.3473   -22.8164 H6            1 RES     
    1298 H6         -42.9216    87.5666   -22.4054 H6            1 RES     
    1299 H6         -43.6891    74.3819   -26.6329 H6            1 RES     
    1300 H6         -43.9878    76.0609   -27.1009 H6            1 RES     
    1301 H6         -41.9020    75.8718   -27.2283 H6            1 RES     
    1302 H6         -41.9630    77.1519   -24.4670 H6            1 RES     
    1303 H6         -42.5470    77.9065   -26.0421 H6            1 RES     
    1304 H6         -39.7018    77.1203   -25.2288 H6            1 RES     
    1305 H6         -40.1967    77.7130   -26.8672 H6            1 RES     
    1306 H6         -39.2642    79.4868   -25.4922 H6            1 RES     
    1307 H6         -41.0011    79.8263   -25.9331 H6            1 RES     
    1308 H6         -40.1792    78.7111   -23.2846 H6            1 RES     
    1309 H6         -41.7724    79.3382   -23.6934 H6            1 RES     
    1310 H6         -39.1147    80.9371   -23.5647 H6            1 RES     
    1311 H6         -40.3672    80.8782   -22.2716 H6            1 RES     
    1312 H6         -40.5554    82.9248   -23.5432 H6            1 RES     
    1313 H6         -42.0230    81.8684   -23.7437 H6            1 RES     
    1314 H6         -40.8604    82.0456   -25.0682 H6            1 RES     
    1315 H6         -40.7301    74.9431   -24.6124 H6            1 RES     
    1316 H6         -41.5652    73.6949   -25.5892 H6            1 RES     
    1317 H6         -40.4807    74.1375   -27.5879 H6            1 RES     
    1318 H6         -39.5664    75.5403   -27.0002 H6            1 RES     
    1319 H6         -38.3488    73.4853   -27.4923 H6            1 RES     
    1320 H6         -39.0095    72.6480   -26.0589 H6            1 RES     
    1321 H6         -37.7933    74.3317   -24.6074 H6            1 RES     
    1322 H6         -37.4470    75.3611   -26.0458 H6            1 RES     
    1323 H6         -36.0748    73.6058   -27.1226 H6            1 RES     
    1324 H6         -36.3397    72.5170   -25.7269 H6            1 RES     
    1325 H6         -35.1464    74.2348   -24.2721 H6            1 RES     
    1326 H6         -34.8714    75.2635   -25.6891 H6            1 RES     
    1327 H6         -33.4896    73.4589   -26.7221 H6            1 RES     
    1328 H6         -33.9113    72.3275   -25.3835 H6            1 RES     
    1329 H6         -32.7858    73.7731   -23.7182 H6            1 RES     
    1330 H6         -32.3329    74.9481   -25.0162 H6            1 RES     
    1331 H6         -31.6602    73.2697   -25.0269 H6            1 RES     
    1332 C0         -49.4868    82.6540   -27.6751 C0            1 RES     
    1333 C1         -50.6941    82.1637   -28.4685 C1            1 RES     
    1334 C1         -51.6121    81.6227   -27.7269 C1            1 RES     
    1335 C1         -51.1679    81.5249   -26.3173 C1            1 RES     
    1336 C1         -49.6256    81.7464   -26.4195 C1            1 RES     
    1337 C1         -49.0740    80.4280   -26.7215 C1            1 RES     
    1338 C1         -49.9059    79.3993   -26.6482 C1            1 RES     
    1339 S2         -51.4625    79.8009   -25.8790 S2            1 RES     
    1340 C1         -49.5250    78.0425   -27.0832 C1            1 RES     
    1341 C1         -48.2383    77.8365   -27.6056 C1            1 RES     
    1342 N3         -47.7958    76.6044   -27.8425 N3            1 RES     
    1343 C1         -48.5285    75.4870   -27.6366 C1            1 RES     
    1344 C1         -49.8734    75.6228   -27.2738 C1            1 RES     
    1345 C1         -50.3764    76.9201   -26.9842 C1            1 RES     
    1346 N3         -51.6661    76.9575   -26.5599 N3            1 RES     
    1347 S2         -52.1021    75.3644   -26.5742 S2            1 RES     
    1348 N3         -50.7323    74.5899   -27.0705 N3            1 RES     
    1349 S2         -52.7841    80.5611   -28.6062 S2            1 RES     
    1350 C1         -52.2908    81.3528   -30.1798 C1            1 RES     
    1351 C1         -50.8634    81.7514   -29.8824 C1            1 RES     
    1352 C0         -49.4893    84.1346   -27.1549 C0            1 RES     
    1353 C0         -50.3950    84.7727   -26.0454 C0            1 RES     
    1354 C0         -51.7801    85.1902   -26.5640 C0            1 RES     
    1355 C0         -52.7916    85.3871   -25.4125 C0            1 RES     
    1356 C0         -54.1953    85.6500   -25.9563 C0            1 RES     
    1357 C0         -55.2653    85.6725   -24.8507 C0            1 RES     
    1358 C0         -56.6569    85.8981   -25.4596 C0            1 RES     
    1359 C0         -57.7787    85.8390   -24.4354 C0            1 RES     
    1360 C0         -49.5317    85.8857   -25.3042 C0            1 RES     
    1361 C0         -49.9134    87.3499   -24.9529 C0            1 RES     
    1362 C0         -49.8443    88.3341   -26.1484 C0            1 RES     
    1363 C0         -49.3378    89.7391   -25.7084 C0            1 RES     
    1364 C0         -48.9517    90.6004   -26.9263 C0            1 RES     
    1365 C0         -47.9211    91.7175   -26.6265 C0            1 RES     
    1366 C0         -48.3603    92.8029   -25.6421 C0            1 RES     
    1367 C0         -47.2836    93.8939   -25.5734 C0            1 RES     
    1368 C0         -48.2395    82.4958   -28.6694 C0            1 RES     
    1369 C0         -46.7174    82.9157   -28.5389 C0            1 RES     
    1370 C0         -46.4742    84.3399   -27.9829 C0            1 RES     
    1371 C0         -45.0821    84.9064   -28.2208 C0            1 RES     
    1372 C0         -44.9728    86.3773   -27.7929 C0            1 RES     
    1373 C0         -45.3087    86.6591   -26.3327 C0            1 RES     
    1374 C0         -44.7972    88.0219   -25.8542 C0            1 RES     
    1375 C0         -45.5496    89.1829   -26.4571 C0            1 RES     
    1376 C0         -45.6675    81.8490   -28.0380 C0            1 RES     
    1377 C0         -44.5490    81.7162   -29.1202 C0            1 RES     
    1378 C0         -43.3139    80.8227   -28.9054 C0            1 RES     
    1379 C0         -42.1518    81.4938   -28.1376 C0            1 RES     
    1380 C0         -40.8235    80.7624   -28.4591 C0            1 RES     
    1381 C0         -39.5898    81.3987   -27.7899 C0            1 RES     
    1382 C0         -38.3207    80.5779   -28.0666 C0            1 RES     
    1383 C0         -37.1419    81.0723   -27.2273 C0            1 RES     
    1384 H4         -48.0633    80.3934   -27.0509 H4            1 RES     
    1385 H5         -47.5139    78.6076   -27.7700 H5            1 RES     
    1386 H4         -50.1561    81.9874   -30.6644 H4            1 RES     
    1387 H6         -48.5545    84.0620   -26.6018 H6            1 RES     
    1388 H6         -49.4027    84.8555   -27.9941 H6            1 RES     
    1389 H6         -50.5619    83.9771   -25.2865 H6            1 RES     
    1390 H6         -51.7022    86.0834   -27.2195 H6            1 RES     
    1391 H6         -52.1685    84.3495   -27.1771 H6            1 RES     
    1392 H6         -52.8204    84.4545   -24.8082 H6            1 RES     
    1393 H6         -52.5032    86.2222   -24.7507 H6            1 RES     
    1394 H6         -54.1801    86.6225   -26.4875 H6            1 RES     
    1395 H6         -54.4564    84.8361   -26.6688 H6            1 RES     
    1396 H6         -55.0427    86.4795   -24.1194 H6            1 RES     
    1397 H6         -55.2562    84.6932   -24.3251 H6            1 RES     
    1398 H6         -56.6893    86.9040   -25.9216 H6            1 RES     
    1399 H6         -56.8534    85.1180   -26.2296 H6            1 RES     
    1400 H6         -57.8044    84.8432   -23.9469 H6            1 RES     
    1401 H6         -57.6455    86.6336   -23.6729 H6            1 RES     
    1402 H6         -58.7475    86.0038   -24.9566 H6            1 RES     
    1403 H6         -49.1872    85.4055   -24.3612 H6            1 RES     
    1404 H6         -48.5781    86.0237   -25.8553 H6            1 RES     
    1405 H6         -50.8095    87.4864   -24.3210 H6            1 RES     
    1406 H6         -49.0651    87.6382   -24.2906 H6            1 RES     
    1407 H6         -49.0660    87.9541   -26.8443 H6            1 RES     
    1408 H6         -50.8029    88.3710   -26.7087 H6            1 RES     
    1409 H6         -50.0560    90.2706   -25.0480 H6            1 RES     
    1410 H6         -48.4136    89.5841   -25.1183 H6            1 RES     
    1411 H6         -48.4317    89.9560   -27.6676 H6            1 RES     
    1412 H6         -49.8733    90.9822   -27.4106 H6            1 RES     
    1413 H6         -47.6215    92.1744   -27.5943 H6            1 RES     
    1414 H6         -46.9999    91.2844   -26.2214 H6            1 RES     
    1415 H6         -48.5019    92.3578   -24.6357 H6            1 RES     
    1416 H6         -49.3180    93.2590   -25.9566 H6            1 RES     
    1417 H6         -47.1402    94.3620   -26.5716 H6            1 RES     
    1418 H6         -46.3095    93.4657   -25.2521 H6            1 RES     
    1419 H6         -47.5815    94.6857   -24.8568 H6            1 RES     
    1420 H6         -48.2406    81.4711   -29.1045 H6            1 RES     
    1421 H6         -48.5723    83.1668   -29.4968 H6            1 RES     
    1422 H6         -46.4965    83.0083   -29.6284 H6            1 RES     
    1423 H6         -46.5939    84.3311   -26.8872 H6            1 RES     
    1424 H6         -47.1940    85.0302   -28.4705 H6            1 RES     
    1425 H6         -44.3326    84.3042   -27.6618 H6            1 RES     
    1426 H6         -44.8472    84.8634   -29.3048 H6            1 RES     
    1427 H6         -43.9158    86.6591   -27.9747 H6            1 RES     
    1428 H6         -45.6590    86.9899   -28.3986 H6            1 RES     
    1429 H6         -44.7943    85.9187   -25.7477 H6            1 RES     
    1430 H6         -46.3926    86.5474   -26.1331 H6            1 RES     
    1431 H6         -43.7123    88.1200   -26.0740 H6            1 RES     
    1432 H6         -44.9379    88.0899   -24.7553 H6            1 RES     
    1433 H6         -45.1319    90.1240   -26.0426 H6            1 RES     
    1434 H6         -46.6104    89.0722   -26.1923 H6            1 RES     
    1435 H6         -45.4877    89.2318   -27.5501 H6            1 RES     
    1436 H6         -45.2850    82.1167   -27.0316 H6            1 RES     
    1437 H6         -46.1211    80.8411   -27.9687 H6            1 RES     
    1438 H6         -45.0737    81.2913   -30.0059 H6            1 RES     
    1439 H6         -44.1663    82.7061   -29.4296 H6            1 RES     
    1440 H6         -42.9264    80.6720   -29.9375 H6            1 RES     
    1441 H6         -43.5726    79.8180   -28.5055 H6            1 RES     
    1442 H6         -42.3756    81.5123   -27.0489 H6            1 RES     
    1443 H6         -42.0297    82.5411   -28.4885 H6            1 RES     
    1444 H6         -40.6505    80.7811   -29.5571 H6            1 RES     
    1445 H6         -40.9179    79.6995   -28.1551 H6            1 RES     
    1446 H6         -39.7310    81.4299   -26.7073 H6            1 RES     
    1447 H6         -39.4516    82.4469   -28.1316 H6            1 RES     
    1448 H6         -38.0683    80.6329   -29.1467 H6            1 RES     
    1449 H6         -38.4945    79.5128   -27.7994 H6            1 RES     
    1450 H6         -37.3727    80.9706   -26.1437 H6            1 RES     
    1451 H6         -36.9160    82.1354   -27.4497 H6            1 RES     
    1452 H6         -36.2437    80.4566   -27.4455 H6            1 RES     
    1453 C0         -54.1067    89.8211   -30.1638 C0            1 RES     
    1454 C1         -55.3306    89.3716   -30.9603 C1            1 RES     
    1455 C1         -56.2393    88.8020   -30.2296 C1            1 RES     
    1456 C1         -55.7823    88.6421   -28.8318 C1            1 RES     
    1457 C1         -54.2429    88.8722   -28.9383 C1            1 RES     
    1458 C1         -53.6822    87.5656   -29.2784 C1            1 RES     
    1459 C1         -54.5020    86.5266   -29.2371 C1            1 RES     
    1460 S2         -56.0708    86.8959   -28.4784 S2            1 RES     
    1461 C1         -54.0956    85.1796   -29.6818 C1            1 RES     
    1462 C1         -52.7984    84.9933   -30.1869 C1            1 RES     
    1463 N3         -52.3376    83.7681   -30.4309 N3            1 RES     
    1464 C1         -53.0621    82.6404   -30.2535 C1            1 RES     
    1465 C1         -54.4154    82.7594   -29.9063 C1            1 RES     
    1466 C1         -54.9345    84.0468   -29.6065 C1            1 RES     
    1467 N3         -56.2304    84.0656   -29.1986 N3            1 RES     
    1468 S2         -56.6513    82.4692   -29.2424 S2            1 RES     
    1469 N3         -55.2680    81.7156   -29.7320 N3            1 RES     
    1470 S2         -57.4391    87.7898   -31.1253 S2            1 RES     
    1471 C1         -56.9414    88.5927   -32.6917 C1            1 RES     
    1472 C1         -55.5198    89.0191   -32.3854 C1            1 RES     
    1473 C0         -54.0817    91.2816   -29.5924 C0            1 RES     
    1474 C0         -54.9923    91.9228   -28.4916 C0            1 RES     
    1475 C0         -56.3633    92.3568   -29.0331 C0            1 RES     
    1476 C0         -57.3863    92.5747   -27.8978 C0            1 RES     
    1477 C0         -58.7844    92.8319   -28.4597 C0            1 RES     
    1478 C0         -59.8575    92.8662   -27.3574 C0            1 RES     
    1479 C0         -61.2463    93.0886   -27.9700 C0            1 RES     
    1480 C0         -62.3701    93.0328   -26.9481 C0            1 RES     
    1481 C0         -54.1222    93.0299   -27.7486 C0            1 RES     
    1482 C0         -54.4965    94.4955   -27.3910 C0            1 RES     
    1483 C0         -54.4387    95.4797   -28.5881 C0            1 RES     
    1484 C0         -53.9404    96.8903   -28.1560 C0            1 RES     
    1485 C0         -53.5589    97.7480   -29.3798 C0            1 RES     
    1486 C0         -52.5246    98.8638   -29.0883 C0            1 RES     
    1487 C0         -52.9608    99.9559   -28.1100 C0            1 RES     
    1488 C0         -51.8811   101.0443   -28.0460 C0            1 RES     
    1489 C0         -52.8654    89.6794   -31.1653 C0            1 RES     
    1490 C0         -51.3384    90.0851   -31.0280 C0            1 RES     
    1491 C0         -51.0895    91.5047   -30.4607 C0            1 RES     
    1492 C0         -49.6929    92.0654   -30.6843 C0            1 RES     
    1493 C0         -49.5784    93.5307   -30.2399 C0            1 RES     
    1494 C0         -49.9187    93.7968   -28.7775 C0            1 RES     
    1495 C0         -49.4023    95.1539   -28.2853 C0            1 RES     
    1496 C0         -50.1492    96.3243   -28.8789 C0            1 RES     
    1497 C0         -50.2932    89.0129   -30.5275 C0            1 RES     
    1498 C0         -49.1633    88.8898   -31.5990 C0            1 RES     
    1499 C0         -47.9304    87.9939   -31.3782 C0            1 RES     
    1500 C0         -46.7708    88.6622   -30.6036 C0            1 RES     
    1501 C0         -45.4408    87.9310   -30.9216 C0            1 RES     
    1502 C0         -44.2093    88.5658   -30.2471 C0            1 RES     
    1503 C0         -42.9379    87.7481   -30.5227 C0            1 RES     
    1504 C0         -41.7630    88.2411   -29.6767 C0            1 RES     
    1505 H4         -52.6683    87.5434   -29.5948 H4            1 RES     
    1506 H5         -52.0819    85.7754   -30.3350 H5            1 RES     
    1507 H4         -54.8317    89.3202   -33.1621 H4            1 RES     
    1508 H6         -53.1556    91.1769   -29.0243 H6            1 RES     
    1509 H6         -53.9742    92.0203   -30.4126 H6            1 RES     
    1510 H6         -55.1771    91.1270   -27.7357 H6            1 RES     
    1511 H6         -56.2661    93.2436   -29.6946 H6            1 RES     
    1512 H6         -56.7540    91.5163   -29.6445 H6            1 RES     
    1513 H6         -57.4249    91.6511   -27.2800 H6            1 RES     
    1514 H6         -57.1017    93.4185   -27.2451 H6            1 RES     
    1515 H6         -58.7677    93.7954   -29.0083 H6            1 RES     
    1516 H6         -59.0413    92.0085   -29.1629 H6            1 RES     
    1517 H6         -59.6360    93.6788   -26.6318 H6            1 RES     
    1518 H6         -59.8506    91.8912   -26.8233 H6            1 RES     
    1519 H6         -61.2762    94.0938   -28.4319 H6            1 RES     
    1520 H6         -61.4406    92.3065   -28.7385 H6            1 RES     
    1521 H6         -62.3975    92.0381   -26.4573 H6            1 RES     
    1522 H6         -62.2377    93.8290   -26.1872 H6            1 RES     
    1523 H6         -63.3374    93.1971   -27.4721 H6            1 RES     
    1524 H6         -53.7704    92.5443   -26.8111 H6            1 RES     
    1525 H6         -53.1736    93.1682   -28.3078 H6            1 RES     
    1526 H6         -55.3866    94.6313   -26.7502 H6            1 RES     
    1527 H6         -53.6412    94.7836   -26.7375 H6            1 RES     
    1528 H6         -53.6600    95.1027   -29.2851 H6            1 RES     
    1529 H6         -55.3991    95.5093   -29.1453 H6            1 RES     
    1530 H6         -54.6599    97.4216   -27.4969 H6            1 RES     
    1531 H6         -53.0157    96.7430   -27.5651 H6            1 RES     
    1532 H6         -53.0426    97.1003   -30.1209 H6            1 RES     
    1533 H6         -54.4808    98.1314   -29.8641 H6            1 RES     
    1534 H6         -52.2250    99.3144   -30.0587 H6            1 RES     
    1535 H6         -51.6031    98.4298   -28.6835 H6            1 RES     
    1536 H6         -53.1046    99.5169   -27.1012 H6            1 RES     
    1537 H6         -53.9170   100.4129   -28.4287 H6            1 RES     
    1538 H6         -51.7352   101.5068   -29.0464 H6            1 RES     
    1539 H6         -50.9087   100.6153   -27.7209 H6            1 RES     
    1540 H6         -52.1779   101.8408   -27.3339 H6            1 RES     
    1541 H6         -52.8787    88.6666   -31.6265 H6            1 RES     
    1542 H6         -53.1936    90.3746   -31.9734 H6            1 RES     
    1543 H6         -51.1143    90.1812   -32.1164 H6            1 RES     
    1544 H6         -51.2136    91.4909   -29.3661 H6            1 RES     
    1545 H6         -51.8014    92.2034   -30.9478 H6            1 RES     
    1546 H6         -48.9501    91.4543   -30.1258 H6            1 RES     
    1547 H6         -49.4518    92.0322   -31.7672 H6            1 RES     
    1548 H6         -48.5197    93.8105   -30.4156 H6            1 RES     
    1549 H6         -50.2600    94.1528   -30.8409 H6            1 RES     
    1550 H6         -49.4168    93.0410   -28.1970 H6            1 RES     
    1551 H6         -51.0041    93.6925   -28.5853 H6            1 RES     
    1552 H6         -48.3168    95.2500   -28.5033 H6            1 RES     
    1553 H6         -49.5447    95.2130   -27.1863 H6            1 RES     
    1554 H6         -49.7303    97.2614   -28.4562 H6            1 RES     
    1555 H6         -51.2106    96.2161   -28.6165 H6            1 RES     
    1556 H6         -50.0862    96.3825   -29.9713 H6            1 RES     
    1557 H6         -49.9224    89.2689   -29.5131 H6            1 RES     
    1558 H6         -50.7439    88.0037   -30.4775 H6            1 RES     
    1559 H6         -49.6795    88.4711   -32.4926 H6            1 RES     
    1560 H6         -48.7777    89.8807   -31.8994 H6            1 RES     
    1561 H6         -47.5371    87.8446   -32.4082 H6            1 RES     
    1562 H6         -48.1923    86.9886   -30.9819 H6            1 RES     
    1563 H6         -46.9994    88.6794   -29.5160 H6            1 RES     
    1564 H6         -46.6463    89.7102   -30.9517 H6            1 RES     
    1565 H6         -45.2640    87.9524   -32.0188 H6            1 RES     
    1566 H6         -45.5355    86.8674   -30.6199 H6            1 RES     
    1567 H6         -44.3535    88.5905   -29.1655 H6            1 RES     
    1568 H6         -44.0714    89.6157   -30.5834 H6            1 RES     
    1569 H6         -42.6816    87.8084   -31.6015 H6            1 RES     
    1570 H6         -43.1111    86.6816   -30.2607 H6            1 RES     
    1571 H6         -41.9976    88.1342   -28.5944 H6            1 RES     
    1572 H6         -41.5382    89.3056   -29.8934 H6            1 RES     
    1573 H6         -40.8628    87.6281   -29.8943 H6            1 RES     
    1574 C0         -58.7452    97.0405   -32.6915 C0            1 RES     
    1575 C1         -59.9802    96.6029   -33.4792 C1            1 RES     
    1576 C1         -60.8871    96.0359   -32.7414 C1            1 RES     
    1577 C1         -60.4249    95.8717   -31.3469 C1            1 RES     
    1578 C1         -58.8848    96.0904   -31.4639 C1            1 RES     
    1579 C1         -58.3433    94.7790   -31.8143 C1            1 RES     
    1580 C1         -59.1728    93.7477   -31.7742 C1            1 RES     
    1581 S2         -60.7261    94.1268   -30.9916 S2            1 RES     
    1582 C1         -58.7771    92.4011   -32.2279 C1            1 RES     
    1583 C1         -57.4944    92.2185   -32.7710 C1            1 RES     
    1584 N3         -57.0266    90.9945   -33.0043 N3            1 RES     
    1585 C1         -57.7343    89.8647   -32.7849 C1            1 RES     
    1586 C1         -59.0835    89.9783   -32.4134 C1            1 RES     
    1587 C1         -59.6068    91.2655   -32.1206 C1            1 RES     
    1588 N3         -60.8930    91.2817   -31.6824 N3            1 RES     
    1589 S2         -61.3040    89.6824   -31.6976 S2            1 RES     
    1590 N3         -59.9261    88.9318   -32.2069 N3            1 RES     
    1591 S2         -62.1048    95.0362   -33.6306 S2            1 RES     
    1592 C1         -61.6429    95.8863   -35.1798 C1            1 RES     
    1593 C1         -60.1979    96.2614   -34.9038 C1            1 RES     
    1594 C0         -58.7053    98.5071   -32.1308 C0            1 RES     
    1595 C0         -59.5841    99.1393   -31.0032 C0            1 RES     
    1596 C0         -60.9755    99.5878   -31.4830 C0            1 RES     
    1597 C0         -61.9750    99.6325   -30.3057 C0            1 RES     
    1598 C0         -63.4247    99.8187   -30.7762 C0            1 RES     
    1599 C0         -64.4229    99.3229   -29.7103 C0            1 RES     
    1600 C0         -65.8794    99.2818   -30.2073 C0            1 RES     
    1601 C0         -66.5946   100.6273   -30.1273 C0            1 RES     
    1602 C0         -58.7031   100.2232   -30.2468 C0            1 RES     
    1603 C0         -59.0864   101.6804   -29.8729 C0            1 RES     
    1604 C0         -59.0193   102.6810   -31.0556 C0            1 RES     
    1605 C0         -58.5175   104.0844   -30.6050 C0            1 RES     
    1606 C0         -58.1309   104.9514   -31.8203 C0            1 RES     
    1607 C0         -57.0985   106.0653   -31.5196 C0            1 RES     
    1608 C0         -57.5442   107.1548   -30.5422 C0            1 RES     
    1609 C0         -56.4731   108.2509   -30.4761 C0            1 RES     
    1610 C0         -57.5023    96.8838   -33.6904 C0            1 RES     
    1611 C0         -55.9678    97.2711   -33.5344 C0            1 RES     
    1612 C0         -55.7038    98.6878   -32.9610 C0            1 RES     
    1613 C0         -54.3013    99.2373   -33.1737 C0            1 RES     
    1614 C0         -54.1757   100.6993   -32.7192 C0            1 RES     
    1615 C0         -54.5057   100.9615   -31.2533 C0            1 RES     
    1616 C0         -53.9820   102.3172   -30.7611 C0            1 RES     
    1617 C0         -54.7349   103.4943   -31.3377 C0            1 RES     
    1618 C0         -54.9382    96.1904   -33.0161 C0            1 RES     
    1619 C0         -53.7898    96.0599   -34.0671 C0            1 RES     
    1620 C0         -52.5614    95.1606   -33.8260 C0            1 RES     
    1621 C0         -51.4023    95.8295   -33.0484 C0            1 RES     
    1622 C0         -50.0702    95.0997   -33.3651 C0            1 RES     
    1623 C0         -48.8377    95.7353   -32.6917 C0            1 RES     
    1624 C0         -47.5649    94.9207   -32.9715 C0            1 RES     
    1625 C0         -46.3885    95.4137   -32.1272 C0            1 RES     
    1626 H4         -57.3324    94.7473   -32.1348 H4            1 RES     
    1627 H5         -56.7911    93.0046   -32.9559 H5            1 RES     
    1628 H4         -59.5175    96.5563   -35.6893 H4            1 RES     
    1629 H6         -57.7748    98.3944   -31.5781 H6            1 RES     
    1630 H6         -58.6055    99.2466   -32.9511 H6            1 RES     
    1631 H6         -59.7352    98.3185   -30.2678 H6            1 RES     
    1632 H6         -60.9261   100.5322   -32.0643 H6            1 RES     
    1633 H6         -61.3471    98.7934   -32.1636 H6            1 RES     
    1634 H6         -61.9118    98.6369   -29.8164 H6            1 RES     
    1635 H6         -61.7201   100.3997   -29.5483 H6            1 RES     
    1636 H6         -63.5892   100.8772   -31.0596 H6            1 RES     
    1637 H6         -63.5812    99.1691   -31.6630 H6            1 RES     
    1638 H6         -64.3403    99.8911   -28.7591 H6            1 RES     
    1639 H6         -64.1468    98.2659   -29.5045 H6            1 RES     
    1640 H6         -65.9094    98.8708   -31.2399 H6            1 RES     
    1641 H6         -66.4565    98.5879   -29.5600 H6            1 RES     
    1642 H6         -66.6851   100.9397   -29.0671 H6            1 RES     
    1643 H6         -66.0591   101.4241   -30.6659 H6            1 RES     
    1644 H6         -67.6169   100.5201   -30.5521 H6            1 RES     
    1645 H6         -58.3541    99.7246   -29.3150 H6            1 RES     
    1646 H6         -57.7540   100.3623   -30.8047 H6            1 RES     
    1647 H6         -59.9920   101.7940   -29.2478 H6            1 RES     
    1648 H6         -58.2391   101.9624   -29.2060 H6            1 RES     
    1649 H6         -58.2391   102.3104   -31.7545 H6            1 RES     
    1650 H6         -59.9768   102.7222   -31.6166 H6            1 RES     
    1651 H6         -59.2374   104.6110   -29.9427 H6            1 RES     
    1652 H6         -57.5950   103.9284   -30.0130 H6            1 RES     
    1653 H6         -57.6116   104.3095   -32.5642 H6            1 RES     
    1654 H6         -59.0513   105.3380   -32.3038 H6            1 RES     
    1655 H6         -56.7980   106.5201   -32.4879 H6            1 RES     
    1656 H6         -56.1770   105.6291   -31.1131 H6            1 RES     
    1657 H6         -57.6887   106.7145   -29.5341 H6            1 RES     
    1658 H6         -58.5020   107.6068   -30.8638 H6            1 RES     
    1659 H6         -56.3303   108.7149   -31.4764 H6            1 RES     
    1660 H6         -55.4980   107.8293   -30.1499 H6            1 RES     
    1661 H6         -56.7775   109.0450   -29.7645 H6            1 RES     
    1662 H6         -57.5261    95.8718   -34.1525 H6            1 RES     
    1663 H6         -57.8185    97.5798   -34.5024 H6            1 RES     
    1664 H6         -55.7309    97.3615   -34.6201 H6            1 RES     
    1665 H6         -55.8264    98.6710   -31.8655 H6            1 RES     
    1666 H6         -56.4069    99.3958   -33.4476 H6            1 RES     
    1667 H6         -53.5660    98.6171   -32.6152 H6            1 RES     
    1668 H6         -54.0567    99.2081   -34.2559 H6            1 RES     
    1669 H6         -53.1157   100.9723   -32.8970 H6            1 RES     
    1670 H6         -54.8552   101.3296   -33.3135 H6            1 RES     
    1671 H6         -54.0017   100.2007   -30.6790 H6            1 RES     
    1672 H6         -55.5893   100.8602   -31.0528 H6            1 RES     
    1673 H6         -52.8990   102.4126   -30.9918 H6            1 RES     
    1674 H6         -54.1098   102.3715   -29.6601 H6            1 RES     
    1675 H6         -54.3063   104.4287   -30.9185 H6            1 RES     
    1676 H6         -55.7919   103.3918   -31.0570 H6            1 RES     
    1677 H6         -54.6914   103.5570   -32.4309 H6            1 RES     
    1678 H6         -54.5836    96.4436   -31.9947 H6            1 RES     
    1679 H6         -55.3948    95.1838   -32.9750 H6            1 RES     
    1680 H6         -54.2940    95.6402   -34.9670 H6            1 RES     
    1681 H6         -53.3964    97.0476   -34.3666 H6            1 RES     
    1682 H6         -52.1607    95.0033   -34.8519 H6            1 RES     
    1683 H6         -52.8290    94.1579   -33.4268 H6            1 RES     
    1684 H6         -51.6315    95.8467   -31.9607 H6            1 RES     
    1685 H6         -51.2773    96.8773   -33.3963 H6            1 RES     
    1686 H6         -49.8931    95.1218   -34.4622 H6            1 RES     
    1687 H6         -50.1636    94.0359   -33.0640 H6            1 RES     
    1688 H6         -48.9791    95.7579   -31.6099 H6            1 RES     
    1689 H6         -48.7018    96.7860   -33.0264 H6            1 RES     
    1690 H6         -47.3108    94.9839   -34.0507 H6            1 RES     
    1691 H6         -47.7352    93.8532   -32.7116 H6            1 RES     
    1692 H6         -46.6198    95.3036   -31.0445 H6            1 RES     
    1693 H6         -46.1658    96.4791   -32.3417 H6            1 RES     
    1694 H6         -45.4875    94.8030   -32.3486 H6            1 RES     
    1695 C0         -63.2889   104.2624   -35.0034 C0            1 RES     
    1696 C1         -64.5320   103.7881   -35.7582 C1            1 RES     
    1697 C1         -65.4319   103.2610   -34.9851 C1            1 RES     
    1698 C1         -64.9542   103.1653   -33.5879 C1            1 RES     
    1699 C1         -63.4119   103.3784   -33.7255 C1            1 RES     
    1700 C1         -62.8732   102.0640   -34.0319 C1            1 RES     
    1701 C1         -63.7142   101.0461   -33.9658 C1            1 RES     
    1702 S2         -65.2466   101.4440   -33.1496 S2            1 RES     
    1703 C1         -63.3604    99.7090   -34.4652 C1            1 RES     
    1704 C1         -62.0956    99.5185   -35.0434 C1            1 RES     
    1705 N3         -61.6718    98.2987   -35.3550 N3            1 RES     
    1706 C1         -62.4061    97.1794   -35.1800 C1            1 RES     
    1707 C1         -63.7422    97.3098   -34.7644 C1            1 RES     
    1708 C1         -64.2203    98.5941   -34.3933 C1            1 RES     
    1709 N3         -65.4962    98.6258   -33.9268 N3            1 RES     
    1710 S2         -65.9528    97.0411   -34.0081 S2            1 RES     
    1711 N3         -64.6092    96.2784   -34.5883 N3            1 RES     
    1712 S2         -66.6769   102.2428   -35.8102 S2            1 RES     
    1713 C1         -66.2218   103.0183   -37.4007 C1            1 RES     
    1714 C1         -64.7710   103.3899   -37.1650 C1            1 RES     
    1715 C0         -63.2536   105.7423   -34.4942 C0            1 RES     
    1716 C0         -64.1375   106.3726   -33.3711 C0            1 RES     
    1717 C0         -65.5438   106.6932   -33.8750 C0            1 RES     
    1718 C0         -66.5504   106.9616   -32.7380 C0            1 RES     
    1719 C0         -67.9602   106.6918   -33.2578 C0            1 RES     
    1720 C0         -69.0801   107.1258   -32.3131 C0            1 RES     
    1721 C0         -70.4355   106.6678   -32.8838 C0            1 RES     
    1722 C0         -71.5945   107.4932   -32.3440 C0            1 RES     
    1723 C0         -63.2901   107.5117   -32.6686 C0            1 RES     
    1724 C0         -63.7200   108.9552   -32.3149 C0            1 RES     
    1725 C0         -63.6634   109.9370   -33.5132 C0            1 RES     
    1726 C0         -63.1350   111.3354   -33.0828 C0            1 RES     
    1727 C0         -62.7407   112.1835   -34.3056 C0            1 RES     
    1728 C0         -61.6958   113.2868   -34.0079 C0            1 RES     
    1729 C0         -62.1281   114.3735   -33.0212 C0            1 RES     
    1730 C0         -61.0493   115.4611   -32.9520 C0            1 RES     
    1731 C0         -62.0694   104.0758   -36.0266 C0            1 RES     
    1732 C0         -60.5338   104.4647   -35.9271 C0            1 RES     
    1733 C0         -60.2583   105.8823   -35.3705 C0            1 RES     
    1734 C0         -58.8628   106.4391   -35.6075 C0            1 RES     
    1735 C0         -58.7456   107.9032   -35.1549 C0            1 RES     
    1736 C0         -59.0867   108.1622   -33.6905 C0            1 RES     
    1737 C0         -58.5932   109.5260   -33.1936 C0            1 RES     
    1738 C0         -59.3481   110.6903   -33.7937 C0            1 RES     
    1739 C0         -59.4977   103.3860   -35.4248 C0            1 RES     
    1740 C0         -58.3697   103.2544   -36.4962 C0            1 RES     
    1741 C0         -57.1387   102.3572   -36.2715 C0            1 RES     
    1742 C0         -55.9798   103.0253   -35.4954 C0            1 RES     
    1743 C0         -54.6481   102.3006   -35.8208 C0            1 RES     
    1744 C0         -53.4177   102.9296   -35.1385 C0            1 RES     
    1745 C0         -52.1447   102.1182   -35.4244 C0            1 RES     
    1746 C0         -50.9721   102.6003   -34.5690 C0            1 RES     
    1747 H4         -61.8716   102.0329   -34.3829 H4            1 RES     
    1748 H5         -61.3707   100.2888   -35.2052 H5            1 RES     
    1749 H4         -64.0963   103.6303   -37.9743 H4            1 RES     
    1750 H6         -62.3101   105.6802   -33.9612 H6            1 RES     
    1751 H6         -63.1918   106.4566   -35.3421 H6            1 RES     
    1752 H6         -64.2628   105.5927   -32.5884 H6            1 RES     
    1753 H6         -65.5468   107.5095   -34.6301 H6            1 RES     
    1754 H6         -65.8833   105.7753   -34.3897 H6            1 RES     
    1755 H6         -66.3915   106.2612   -31.8892 H6            1 RES     
    1756 H6         -66.4402   108.0022   -32.3774 H6            1 RES     
    1757 H6         -68.0848   107.2642   -34.1813 H6            1 RES     
    1758 H6         -68.0507   105.6089   -33.4970 H6            1 RES     
    1759 H6         -69.0304   108.2353   -32.2507 H6            1 RES     
    1760 H6         -68.9582   106.7032   -31.2923 H6            1 RES     
    1761 H6         -70.4617   106.7885   -33.9762 H6            1 RES     
    1762 H6         -70.5778   105.5833   -32.6857 H6            1 RES     
    1763 H6         -71.6630   107.4155   -31.2417 H6            1 RES     
    1764 H6         -71.4520   108.5582   -32.6353 H6            1 RES     
    1765 H6         -72.5415   107.1397   -32.8053 H6            1 RES     
    1766 H6         -62.9112   107.0487   -31.7295 H6            1 RES     
    1767 H6         -62.3506   107.6663   -33.2376 H6            1 RES     
    1768 H6         -64.6241   109.0566   -31.6860 H6            1 RES     
    1769 H6         -62.8840   109.2637   -31.6462 H6            1 RES     
    1770 H6         -62.8971   109.5537   -34.2207 H6            1 RES     
    1771 H6         -64.6273   109.9751   -34.0643 H6            1 RES     
    1772 H6         -63.8414   111.8788   -32.4196 H6            1 RES     
    1773 H6         -62.2081   111.1718   -32.4991 H6            1 RES     
    1774 H6         -62.2299   111.5309   -35.0462 H6            1 RES     
    1775 H6         -63.6597   112.5735   -34.7876 H6            1 RES     
    1776 H6         -61.3937   113.7429   -34.9751 H6            1 RES     
    1777 H6         -60.7778   112.8391   -33.6069 H6            1 RES     
    1778 H6         -62.2710   113.9280   -32.0151 H6            1 RES     
    1779 H6         -63.0845   114.8335   -33.3343 H6            1 RES     
    1780 H6         -60.9078   115.9312   -33.9495 H6            1 RES     
    1781 H6         -60.0762   115.0298   -32.6324 H6            1 RES     
    1782 H6         -61.3455   116.2517   -32.2331 H6            1 RES     
    1783 H6         -62.1028   103.0499   -36.4570 H6            1 RES     
    1784 H6         -62.4074   104.7468   -36.8516 H6            1 RES     
    1785 H6         -60.3266   104.5440   -37.0202 H6            1 RES     
    1786 H6         -60.3578   105.8603   -34.2732 H6            1 RES     
    1787 H6         -60.9747   106.5861   -35.8441 H6            1 RES     
    1788 H6         -58.1168   105.8247   -35.0568 H6            1 RES     
    1789 H6         -58.6315   106.4090   -36.6926 H6            1 RES     
    1790 H6         -57.6881   108.1873   -35.3300 H6            1 RES     
    1791 H6         -59.4298   108.5270   -35.7513 H6            1 RES     
    1792 H6         -58.5754   107.4103   -33.1106 H6            1 RES     
    1793 H6         -60.1703   108.0456   -33.4996 H6            1 RES     
    1794 H6         -57.5073   109.6355   -33.4020 H6            1 RES     
    1795 H6         -58.7460   109.5804   -32.0955 H6            1 RES     
    1796 H6         -58.9426   111.6296   -33.3635 H6            1 RES     
    1797 H6         -60.4137   110.5756   -33.5474 H6            1 RES     
    1798 H6         -59.2670   110.7519   -34.8851 H6            1 RES     
    1799 H6         -59.1267   103.6403   -34.4100 H6            1 RES     
    1800 H6         -59.9572   102.3800   -35.3748 H6            1 RES     
    1801 H6         -58.8877   102.8331   -37.3876 H6            1 RES     
    1802 H6         -57.9815   104.2422   -36.8026 H6            1 RES     
    1803 H6         -56.7448   102.2060   -37.3010 H6            1 RES     
    1804 H6         -57.4018   101.3524   -35.8743 H6            1 RES     
    1805 H6         -56.2070   103.0351   -34.4073 H6            1 RES     
    1806 H6         -55.8587   104.0758   -35.8370 H6            1 RES     
    1807 H6         -54.4716   102.3346   -36.9177 H6            1 RES     
    1808 H6         -54.7406   101.2334   -35.5316 H6            1 RES     
    1809 H6         -53.5614   102.9394   -34.0567 H6            1 RES     
    1810 H6         -53.2820   103.9842   -35.4608 H6            1 RES     
    1811 H6         -51.8871   102.1949   -36.5019 H6            1 RES     
    1812 H6         -52.3164   101.0476   -35.1785 H6            1 RES     
    1813 H6         -51.2084   102.4764   -33.4888 H6            1 RES     
    1814 H6         -50.7488   103.6684   -34.7689 H6            1 RES     
    1815 H6         -50.0704   101.9923   -34.7941 H6            1 RES     
    1816 C0         -67.9038   111.4774   -37.5441 C0            1 RES     
    1817 C1         -69.1399   110.9893   -38.2959 C1            1 RES     
    1818 C1         -70.0431   110.4726   -37.5178 C1            1 RES     
    1819 C1         -69.5609   110.3945   -36.1212 C1            1 RES     
    1820 C1         -68.0204   110.5910   -36.2716 C1            1 RES     
    1821 C1         -67.4955   109.2663   -36.5747 C1            1 RES     
    1822 C1         -68.3353   108.2501   -36.4740 C1            1 RES     
    1823 S2         -69.8586   108.6898   -35.6407 S2            1 RES     
    1824 C1         -67.9622   106.8831   -36.9009 C1            1 RES     
    1825 C1         -66.6760   106.6630   -37.4229 C1            1 RES     
    1826 N3         -66.2385   105.4283   -37.6555 N3            1 RES     
    1827 C1         -66.9769   104.3167   -37.4525 C1            1 RES     
    1828 C1         -68.3223   104.4636   -37.0819 C1            1 RES     
    1829 C1         -68.8179   105.7658   -36.7943 C1            1 RES     
    1830 N3         -70.1077   105.8139   -36.3726 N3            1 RES     
    1831 S2         -70.5539   104.2233   -36.3828 S2            1 RES     
    1832 N3         -69.1901   103.4379   -36.8796 N3            1 RES     
    1833 S2         -71.2725   109.4307   -38.3392 S2            1 RES     
    1834 C1         -70.8233   110.2099   -39.9306 C1            1 RES     
    1835 C1         -69.3702   110.5714   -39.6985 C1            1 RES     
    1836 C0         -67.8919   112.9669   -37.0405 C0            1 RES     
    1837 C0         -68.7795   113.5813   -35.9048 C0            1 RES     
    1838 C0         -70.1823   113.9937   -36.3838 C0            1 RES     
    1839 C0         -71.1876   114.0619   -35.2123 C0            1 RES     
    1840 C0         -72.6366   114.1786   -35.7089 C0            1 RES     
    1841 C0         -73.6468   113.7657   -34.6198 C0            1 RES     
    1842 C0         -75.0873   113.6071   -35.1489 C0            1 RES     
    1843 C0         -75.9101   114.8924   -35.1251 C0            1 RES     
    1844 C0         -67.9256   114.6642   -35.1223 C0            1 RES     
    1845 C0         -68.3263   116.1195   -34.7808 C0            1 RES     
    1846 C0         -68.2399   117.0968   -35.9768 C0            1 RES     
    1847 C0         -67.7291   118.4961   -35.5336 C0            1 RES     
    1848 C0         -67.3331   119.3511   -36.7502 C0            1 RES     
    1849 C0         -66.2994   120.4607   -36.4418 C0            1 RES     
    1850 C0         -66.7482   121.5457   -35.4613 C0            1 RES     
    1851 C0         -65.6748   122.6380   -35.3834 C0            1 RES     
    1852 C0         -66.6747   111.2854   -38.5521 C0            1 RES     
    1853 C0         -65.1389   111.6641   -38.4226 C0            1 RES     
    1854 C0         -64.8675   113.0762   -37.8528 C0            1 RES     
    1855 C0         -63.4684   113.6281   -38.0742 C0            1 RES     
    1856 C0         -63.3517   115.0917   -37.6223 C0            1 RES     
    1857 C0         -63.6979   115.3561   -36.1609 C0            1 RES     
    1858 C0         -63.1954   116.7175   -35.6664 C0            1 RES     
    1859 C0         -63.9493   117.8837   -36.2616 C0            1 RES     
    1860 C0         -64.1123   110.5790   -37.9094 C0            1 RES     
    1861 C0         -62.9728   110.4423   -38.9683 C0            1 RES     
    1862 C0         -61.7476   109.5383   -38.7330 C0            1 RES     
    1863 C0         -60.5836   110.2049   -37.9620 C0            1 RES     
    1864 C0         -59.2565   109.4685   -38.2807 C0            1 RES     
    1865 C0         -58.0195   110.1025   -37.6147 C0            1 RES     
    1866 C0         -56.7521   109.2798   -37.8953 C0            1 RES     
    1867 C0         -55.5694   109.7719   -37.0597 C0            1 RES     
    1868 H4         -66.4962   109.2200   -36.9281 H4            1 RES     
    1869 H5         -65.9459   107.4252   -37.5940 H5            1 RES     
    1870 H4         -68.6932   110.8070   -40.5071 H4            1 RES     
    1871 H6         -66.9498   112.9014   -36.5089 H6            1 RES     
    1872 H6         -67.8215   113.6869   -37.8812 H6            1 RES     
    1873 H6         -68.9167   112.7614   -35.1688 H6            1 RES     
    1874 H6         -70.1521   114.9202   -36.9942 H6            1 RES     
    1875 H6         -70.5376   113.1725   -37.0400 H6            1 RES     
    1876 H6         -71.0998   113.0966   -34.6692 H6            1 RES     
    1877 H6         -70.9636   114.8778   -34.4989 H6            1 RES     
    1878 H6         -72.8140   115.2025   -36.0849 H6            1 RES     
    1879 H6         -72.7646   113.4475   -36.5360 H6            1 RES     
    1880 H6         -73.6106   114.4305   -33.7297 H6            1 RES     
    1881 H6         -73.3362   112.7489   -34.2987 H6            1 RES     
    1882 H6         -75.0675   113.1580   -36.1659 H6            1 RES     
    1883 H6         -75.6284   112.8957   -34.4902 H6            1 RES     
    1884 H6         -76.0523   115.2231   -34.0759 H6            1 RES     
    1885 H6         -75.4338   115.7168   -35.6760 H6            1 RES     
    1886 H6         -76.9118   114.6882   -35.5646 H6            1 RES     
    1887 H6         -67.6219   114.1773   -34.1686 H6            1 RES     
    1888 H6         -66.9504   114.7950   -35.6347 H6            1 RES     
    1889 H6         -69.2468   116.2389   -34.1800 H6            1 RES     
    1890 H6         -67.4989   116.4130   -34.0943 H6            1 RES     
    1891 H6         -67.4585   116.7102   -36.6658 H6            1 RES     
    1892 H6         -69.1940   117.1382   -36.5443 H6            1 RES     
    1893 H6         -68.4480   119.0313   -34.8768 H6            1 RES     
    1894 H6         -66.8084   118.3357   -34.9389 H6            1 RES     
    1895 H6         -66.8130   118.7038   -37.4890 H6            1 RES     
    1896 H6         -68.2513   119.7364   -37.2379 H6            1 RES     
    1897 H6         -65.9904   120.9175   -37.4063 H6            1 RES     
    1898 H6         -65.3833   120.0200   -36.0295 H6            1 RES     
    1899 H6         -66.8993   121.1007   -34.4561 H6            1 RES     
    1900 H6         -67.7036   122.0004   -35.7854 H6            1 RES     
    1901 H6         -65.5255   123.1064   -36.3807 H6            1 RES     
    1902 H6         -64.7030   122.2112   -35.0538 H6            1 RES     
    1903 H6         -65.9810   123.4288   -34.6691 H6            1 RES     
    1904 H6         -66.7048   110.2587   -38.9813 H6            1 RES     
    1905 H6         -67.0007   111.9552   -39.3821 H6            1 RES     
    1906 H6         -64.9143   111.7480   -39.5115 H6            1 RES     
    1907 H6         -64.9816   113.0490   -36.7560 H6            1 RES     
    1908 H6         -65.5768   113.7837   -38.3317 H6            1 RES     
    1909 H6         -62.7291   113.0107   -37.5177 H6            1 RES     
    1910 H6         -63.2275   113.5975   -39.1572 H6            1 RES     
    1911 H6         -62.2928   115.3724   -37.7937 H6            1 RES     
    1912 H6         -64.0329   115.7152   -38.2215 H6            1 RES     
    1913 H6         -63.1905   114.6059   -35.5792 H6            1 RES     
    1914 H6         -64.7826   115.2432   -35.9715 H6            1 RES     
    1915 H6         -62.1098   116.8219   -35.8799 H6            1 RES     
    1916 H6         -63.3421   116.7744   -34.5677 H6            1 RES     
    1917 H6         -63.5356   118.8217   -35.8365 H6            1 RES     
    1918 H6         -65.0119   117.7719   -36.0030 H6            1 RES     
    1919 H6         -63.8811   117.9433   -37.3537 H6            1 RES     
    1920 H6         -63.7501   110.8302   -36.8903 H6            1 RES     
    1921 H6         -64.5745   109.5742   -37.8654 H6            1 RES     
    1922 H6         -63.4848   110.0231   -39.8641 H6            1 RES     
    1923 H6         -62.5779   111.4285   -39.2713 H6            1 RES     
    1924 H6         -61.3527   109.3772   -39.7605 H6            1 RES     
    1925 H6         -62.0173   108.5375   -38.3301 H6            1 RES     
    1926 H6         -60.8088   110.2268   -36.8735 H6            1 RES     
    1927 H6         -60.4555   111.2510   -38.3143 H6            1 RES     
    1928 H6         -59.0834   109.4847   -39.3786 H6            1 RES     
    1929 H6         -59.3537   108.4066   -37.9744 H6            1 RES     
    1930 H6         -58.1578   110.1332   -36.5321 H6            1 RES     
    1931 H6         -57.8800   111.1505   -37.9567 H6            1 RES     
    1932 H6         -56.5026   109.3350   -38.9761 H6            1 RES     
    1933 H6         -56.9266   108.2149   -37.6285 H6            1 RES     
    1934 H6         -55.7965   109.6703   -35.9754 H6            1 RES     
    1935 H6         -55.3418   110.8345   -37.2825 H6            1 RES     
    1936 H6         -54.6730   109.1545   -37.2811 H6            1 RES     
    1937 C0         -72.5084   118.6352   -39.9717 C0            1 RES     
    1938 C1         -73.7389   118.1406   -40.7285 C1            1 RES     
    1939 C1         -74.6445   117.6203   -39.9561 C1            1 RES     
    1940 C1         -74.1761   117.5411   -38.5554 C1            1 RES     
    1941 C1         -72.6345   117.7606   -38.6865 C1            1 RES     
    1942 C1         -72.0862   116.4405   -38.9688 C1            1 RES     
    1943 C1         -72.9177   115.4146   -38.8844 C1            1 RES     
    1944 S2         -74.4650   115.8216   -38.0996 S2            1 RES     
    1945 C1         -72.5444   114.0623   -39.3355 C1            1 RES     
    1946 C1         -71.2544   113.8547   -39.8478 C1            1 RES     
    1947 N3         -70.8241   112.6270   -40.1191 N3            1 RES     
    1948 C1         -71.5709   111.5128   -39.9608 C1            1 RES     
    1949 C1         -72.9186   111.6541   -39.6002 C1            1 RES     
    1950 C1         -73.4087   112.9478   -39.2754 C1            1 RES     
    1951 N3         -74.7032   112.9900   -38.8656 N3            1 RES     
    1952 S2         -75.1584   111.4033   -38.9326 S2            1 RES     
    1953 N3         -73.7931   110.6267   -39.4394 N3            1 RES     
    1954 S2         -75.8655   116.5732   -40.7857 S2            1 RES     
    1955 C1         -75.4082   117.3480   -42.3761 C1            1 RES     
    1956 C1         -73.9586   117.7160   -42.1314 C1            1 RES     
    1957 C0         -72.4971   120.1312   -39.4909 C0            1 RES     
    1958 C0         -73.3775   120.7679   -38.3627 C0            1 RES     
    1959 C0         -74.7805   121.1831   -38.8390 C0            1 RES     
    1960 C0         -75.7775   121.2441   -37.6591 C0            1 RES     
    1961 C0         -77.2310   121.3765   -38.1363 C0            1 RES     
    1962 C0         -78.2265   120.9299   -37.0466 C0            1 RES     
    1963 C0         -79.6756   120.8014   -37.5564 C0            1 RES     
    1964 C0         -80.4610   122.1100   -37.5405 C0            1 RES     
    1965 C0         -72.5102   121.8628   -37.6123 C0            1 RES     
    1966 C0         -72.9167   123.3118   -37.2469 C0            1 RES     
    1967 C0         -72.8525   124.3019   -38.4365 C0            1 RES     
    1968 C0         -72.3279   125.6970   -37.9942 C0            1 RES     
    1969 C0         -71.9344   126.5515   -39.2126 C0            1 RES     
    1970 C0         -70.8911   127.6539   -38.9101 C0            1 RES     
    1971 C0         -71.3281   128.7402   -37.9258 C0            1 RES     
    1972 C0         -70.2493   129.8273   -37.8523 C0            1 RES     
    1973 C0         -71.2751   118.4377   -40.9770 C0            1 RES     
    1974 C0         -69.7395   118.8257   -40.8589 C0            1 RES     
    1975 C0         -69.4675   120.2419   -40.2977 C0            1 RES     
    1976 C0         -68.0690   120.7957   -40.5264 C0            1 RES     
    1977 C0         -67.9503   122.2606   -40.0775 C0            1 RES     
    1978 C0         -68.2926   122.5251   -38.6150 C0            1 RES     
    1979 C0         -67.7949   123.8883   -38.1206 C0            1 RES     
    1980 C0         -68.5516   125.0533   -38.7159 C0            1 RES     
    1981 C0         -68.7059   117.7458   -40.3498 C0            1 RES     
    1982 C0         -67.5725   117.6093   -41.4159 C0            1 RES     
    1983 C0         -66.3415   116.7123   -41.1845 C0            1 RES     
    1984 C0         -65.1796   117.3857   -40.4162 C0            1 RES     
    1985 C0         -63.8484   116.6576   -40.7377 C0            1 RES     
    1986 C0         -62.6151   117.2944   -40.0668 C0            1 RES     
    1987 C0         -61.3435   116.4776   -40.3453 C0            1 RES     
    1988 C0         -60.1670   116.9698   -39.5007 C0            1 RES     
    1989 H4         -71.0815   116.4078   -39.3102 H4            1 RES     
    1990 H5         -70.5175   114.6180   -39.9846 H5            1 RES     
    1991 H4         -73.2764   117.9493   -42.9364 H4            1 RES     
    1992 H6         -71.5529   120.0733   -38.9612 H6            1 RES     
    1993 H6         -72.4280   120.8386   -40.3431 H6            1 RES     
    1994 H6         -73.5153   119.9607   -37.6124 H6            1 RES     
    1995 H6         -74.7512   122.1124   -39.4456 H6            1 RES     
    1996 H6         -75.1413   120.3643   -39.4958 H6            1 RES     
    1997 H6         -75.6907   120.2701   -37.1318 H6            1 RES     
    1998 H6         -75.5416   122.0467   -36.9341 H6            1 RES     
    1999 H6         -77.4120   122.4130   -38.4779 H6            1 RES     
    2000 H6         -77.3717   120.6721   -38.9838 H6            1 RES     
    2001 H6         -78.1725   121.5658   -36.1368 H6            1 RES     
    2002 H6         -77.9197   119.9002   -36.7635 H6            1 RES     
    2003 H6         -79.6761   120.3435   -38.5700 H6            1 RES     
    2004 H6         -80.2270   120.1102   -36.8845 H6            1 RES     
    2005 H6         -80.5824   122.4597   -36.4951 H6            1 RES     
    2006 H6         -79.9648   122.9123   -38.1062 H6            1 RES     
    2007 H6         -81.4715   121.9303   -37.9698 H6            1 RES     
    2008 H6         -72.1570   121.3735   -36.6769 H6            1 RES     
    2009 H6         -71.5610   122.0120   -38.1668 H6            1 RES     
    2010 H6         -73.8248   123.4210   -36.6254 H6            1 RES     
    2011 H6         -72.0773   123.6038   -36.5746 H6            1 RES     
    2012 H6         -72.0846   123.9209   -39.1433 H6            1 RES     
    2013 H6         -73.8149   124.3492   -38.9890 H6            1 RES     
    2014 H6         -73.0370   126.2352   -37.3295 H6            1 RES     
    2015 H6         -71.4030   125.5305   -37.4084 H6            1 RES     
    2016 H6         -71.4224   125.9029   -39.9558 H6            1 RES     
    2017 H6         -72.8537   126.9423   -39.6934 H6            1 RES     
    2018 H6         -70.5853   128.1107   -39.8758 H6            1 RES     
    2019 H6         -69.9749   127.2057   -38.5056 H6            1 RES     
    2020 H6         -71.4760   128.2945   -36.9205 H6            1 RES     
    2021 H6         -72.2829   129.1999   -38.2446 H6            1 RES     
    2022 H6         -70.1041   130.2973   -38.8495 H6            1 RES     
    2023 H6         -69.2777   129.3954   -37.5291 H6            1 RES     
    2024 H6         -70.5479   130.6179   -37.1344 H6            1 RES     
    2025 H6         -71.3019   117.4069   -41.3961 H6            1 RES     
    2026 H6         -71.6035   119.0991   -41.8131 H6            1 RES     
    2027 H6         -69.5209   118.9064   -41.9495 H6            1 RES     
    2028 H6         -69.5797   120.2188   -39.2004 H6            1 RES     
    2029 H6         -70.1792   120.9466   -40.7773 H6            1 RES     
    2030 H6         -67.3268   120.1804   -39.9714 H6            1 RES     
    2031 H6         -67.8318   120.7634   -41.6103 H6            1 RES     
    2032 H6         -66.8917   122.5416   -40.2517 H6            1 RES     
    2033 H6         -68.6322   122.8838   -40.6766 H6            1 RES     
    2034 H6         -67.7810   121.7758   -38.0347 H6            1 RES     
    2035 H6         -69.3762   122.4089   -38.4226 H6            1 RES     
    2036 H6         -66.7094   123.9961   -38.3328 H6            1 RES     
    2037 H6         -67.9431   123.9442   -37.0221 H6            1 RES     
    2038 H6         -68.1421   125.9916   -38.2875 H6            1 RES     
    2039 H6         -69.6152   124.9390   -38.4622 H6            1 RES     
    2040 H6         -68.4793   125.1154   -39.8076 H6            1 RES     
    2041 H6         -68.3376   118.0020   -39.3343 H6            1 RES     
    2042 H6         -69.1664   116.7403   -40.2987 H6            1 RES     
    2043 H6         -68.0878   117.1849   -42.3074 H6            1 RES     
    2044 H6         -67.1833   118.5960   -41.7247 H6            1 RES     
    2045 H6         -65.9485   116.5526   -42.2130 H6            1 RES     
    2046 H6         -66.6047   115.7105   -40.7797 H6            1 RES     
    2047 H6         -65.4040   117.4054   -39.3276 H6            1 RES     
    2048 H6         -65.0583   118.4329   -40.7675 H6            1 RES     
    2049 H6         -63.6749   116.6791   -41.8354 H6            1 RES     
    2050 H6         -63.9405   115.5937   -40.4368 H6            1 RES     
    2051 H6         -62.7556   117.3207   -38.9846 H6            1 RES     
    2052 H6         -62.4791   118.3443   -40.4039 H6            1 RES     
    2053 H6         -61.0891   116.5388   -41.4245 H6            1 RES     
    2054 H6         -61.5152   115.4108   -40.0841 H6            1 RES     
    2055 H6         -60.3992   116.8612   -38.4181 H6            1 RES     
    2056 H6         -59.9426   118.0346   -39.7162 H6            1 RES     
    2057 H6         -59.2669   116.3572   -39.7206 H6            1 RES     
    2058 C0         -77.0882   125.7755   -42.3828 C0            1 RES     
    2059 C1         -78.3368   125.3057   -43.1295 C1            1 RES     
    2060 C1         -79.2328   124.7814   -42.3508 C1            1 RES     
    2061 C1         -78.7455   124.6727   -40.9599 C1            1 RES     
    2062 C1         -77.2043   124.8863   -41.1104 C1            1 RES     
    2063 C1         -76.6630   123.5717   -41.4181 C1            1 RES     
    2064 C1         -77.4962   122.5471   -41.3378 C1            1 RES     
    2065 S2         -79.0382   122.9456   -40.5423 S2            1 RES     
    2066 C1         -77.1273   121.1978   -41.7944 C1            1 RES     
    2067 C1         -75.8425   120.9908   -42.3176 C1            1 RES     
    2068 N3         -75.4130   119.7621   -42.5867 N3            1 RES     
    2069 C1         -76.1583   118.6481   -42.4171 C1            1 RES     
    2070 C1         -77.5043   118.7906   -42.0488 C1            1 RES     
    2071 C1         -77.9912   120.0843   -41.7248 C1            1 RES     
    2072 N3         -79.2817   120.1273   -41.3026 N3            1 RES     
    2073 S2         -79.7377   118.5411   -41.3592 S2            1 RES     
    2074 N3         -78.3772   117.7640   -41.8765 N3            1 RES     
    2075 S2         -80.5157   123.8042   -43.1642 S2            1 RES     
    2076 C1         -80.0607   124.5860   -44.7515 C1            1 RES     
    2077 C1         -78.5983   124.9269   -44.5362 C1            1 RES     
    2078 C0         -77.0534   127.2532   -41.8668 C0            1 RES     
    2079 C0         -77.9353   127.8899   -40.7454 C0            1 RES     
    2080 C0         -79.3442   128.2025   -41.2481 C0            1 RES     
    2081 C0         -80.3579   128.4617   -40.1134 C0            1 RES     
    2082 C0         -81.7604   128.1377   -40.6291 C0            1 RES     
    2083 C0         -82.8991   128.5212   -39.6853 C0            1 RES     
    2084 C0         -84.2323   128.0293   -40.2779 C0            1 RES     
    2085 C0         -85.4368   128.6520   -39.5900 C0            1 RES     
    2086 C0         -77.0841   129.0385   -40.0643 C0            1 RES     
    2087 C0         -77.5249   130.4744   -39.6914 C0            1 RES     
    2088 C0         -77.4745   131.4721   -40.8793 C0            1 RES     
    2089 C0         -76.9414   132.8664   -40.4383 C0            1 RES     
    2090 C0         -76.5450   133.7242   -41.6545 C0            1 RES     
    2091 C0         -75.5029   134.8279   -41.3472 C0            1 RES     
    2092 C0         -75.9445   135.9137   -40.3641 C0            1 RES     
    2093 C0         -74.8683   137.0034   -40.2864 C0            1 RES     
    2094 C0         -75.8727   125.5991   -43.4109 C0            1 RES     
    2095 C0         -74.3388   125.9996   -43.3114 C0            1 RES     
    2096 C0         -74.0683   127.4222   -42.7577 C0            1 RES     
    2097 C0         -72.6742   127.9840   -42.9935 C0            1 RES     
    2098 C0         -72.5580   129.4499   -42.5431 C0            1 RES     
    2099 C0         -72.8917   129.7152   -41.0782 C0            1 RES     
    2100 C0         -72.3887   131.0779   -40.5861 C0            1 RES     
    2101 C0         -73.1468   132.2449   -41.1759 C0            1 RES     
    2102 C0         -73.2989   124.9264   -42.8062 C0            1 RES     
    2103 C0         -72.1655   124.8013   -43.8727 C0            1 RES     
    2104 C0         -70.9355   123.9031   -43.6455 C0            1 RES     
    2105 C0         -69.7756   124.5706   -42.8699 C0            1 RES     
    2106 C0         -68.4456   123.8416   -43.1927 C0            1 RES     
    2107 C0         -67.2120   124.4741   -42.5192 C0            1 RES     
    2108 C0         -65.9416   123.6580   -42.8036 C0            1 RES     
    2109 C0         -64.7630   124.1472   -41.9606 C0            1 RES     
    2110 H4         -75.6598   123.5412   -41.7654 H4            1 RES     
    2111 H5         -75.1068   121.7547   -42.4609 H5            1 RES     
    2112 H4         -77.9395   125.1944   -45.3503 H4            1 RES     
    2113 H6         -76.1100   127.1906   -41.3328 H6            1 RES     
    2114 H6         -76.9941   127.9677   -42.7149 H6            1 RES     
    2115 H6         -78.0562   127.1168   -39.9548 H6            1 RES     
    2116 H6         -79.3560   129.0137   -42.0080 H6            1 RES     
    2117 H6         -79.6732   127.2794   -41.7582 H6            1 RES     
    2118 H6         -80.1785   127.7797   -39.2539 H6            1 RES     
    2119 H6         -80.2755   129.5112   -39.7684 H6            1 RES     
    2120 H6         -81.9095   128.6941   -41.5556 H6            1 RES     
    2121 H6         -81.8091   127.0497   -40.8595 H6            1 RES     
    2122 H6         -82.8982   129.6298   -39.5928 H6            1 RES     
    2123 H6         -82.7615   128.0724   -38.6784 H6            1 RES     
    2124 H6         -84.3078   128.3034   -41.3408 H6            1 RES     
    2125 H6         -84.2781   126.9198   -40.2221 H6            1 RES     
    2126 H6         -85.4511   128.3993   -38.5117 H6            1 RES     
    2127 H6         -85.4068   129.7565   -39.7177 H6            1 RES     
    2128 H6         -86.3647   128.2750   -40.0718 H6            1 RES     
    2129 H6         -76.6737   128.5747   -39.1387 H6            1 RES     
    2130 H6         -76.1613   129.2061   -40.6570 H6            1 RES     
    2131 H6         -78.4275   130.5604   -39.0576 H6            1 RES     
    2132 H6         -76.6879   130.7813   -39.0233 H6            1 RES     
    2133 H6         -76.7118   131.0980   -41.5953 H6            1 RES     
    2134 H6         -78.4400   131.5158   -41.4269 H6            1 RES     
    2135 H6         -77.6455   133.4057   -39.7695 H6            1 RES     
    2136 H6         -76.0135   132.6958   -39.8581 H6            1 RES     
    2137 H6         -76.0307   133.0768   -42.3975 H6            1 RES     
    2138 H6         -77.4624   134.1165   -42.1377 H6            1 RES     
    2139 H6         -75.1937   135.2856   -42.3113 H6            1 RES     
    2140 H6         -74.5872   134.3817   -40.9389 H6            1 RES     
    2141 H6         -76.0948   135.4677   -39.3593 H6            1 RES     
    2142 H6         -76.8990   136.3720   -40.6858 H6            1 RES     
    2143 H6         -74.7203   137.4743   -41.2826 H6            1 RES     
    2144 H6         -73.8967   136.5741   -39.9597 H6            1 RES     
    2145 H6         -75.1714   137.7933   -39.5695 H6            1 RES     
    2146 H6         -75.9027   124.5738   -43.8427 H6            1 RES     
    2147 H6         -76.2168   126.2690   -44.2340 H6            1 RES     
    2148 H6         -74.1318   126.0773   -44.4045 H6            1 RES     
    2149 H6         -74.1668   127.4060   -41.6607 H6            1 RES     
    2150 H6         -74.7865   128.1224   -43.2339 H6            1 RES     
    2151 H6         -71.9268   127.3724   -42.4415 H6            1 RES     
    2152 H6         -72.4421   127.9527   -44.0785 H6            1 RES     
    2153 H6         -71.5008   129.7326   -42.7218 H6            1 RES     
    2154 H6         -73.2438   130.0731   -43.1379 H6            1 RES     
    2155 H6         -72.3769   128.9666   -40.5006 H6            1 RES     
    2156 H6         -73.9741   129.5998   -40.8790 H6            1 RES     
    2157 H6         -71.3041   131.1836   -40.8044 H6            1 RES     
    2158 H6         -72.5297   131.1339   -39.4867 H6            1 RES     
    2159 H6         -72.7326   133.1828   -40.7507 H6            1 RES     
    2160 H6         -74.2088   132.1329   -40.9134 H6            1 RES     
    2161 H6         -73.0820   132.3064   -42.2682 H6            1 RES     
    2162 H6         -72.9349   125.1800   -41.7886 H6            1 RES     
    2163 H6         -73.7541   123.9180   -42.7619 H6            1 RES     
    2164 H6         -72.6789   124.3820   -44.7677 H6            1 RES     
    2165 H6         -71.7773   125.7902   -44.1751 H6            1 RES     
    2166 H6         -70.5408   123.7506   -44.6744 H6            1 RES     
    2167 H6         -71.2002   122.8989   -43.2479 H6            1 RES     
    2168 H6         -70.0025   124.5844   -41.7817 H6            1 RES     
    2169 H6         -69.6522   125.6196   -43.2151 H6            1 RES     
    2170 H6         -68.2712   123.8676   -44.2902 H6            1 RES     
    2171 H6         -68.5393   122.7767   -42.8957 H6            1 RES     
    2172 H6         -67.3517   124.4944   -41.4368 H6            1 RES     
    2173 H6         -67.0756   125.5255   -42.8516 H6            1 RES     
    2174 H6         -65.6899   123.7230   -43.8833 H6            1 RES     
    2175 H6         -66.1135   122.5903   -42.5458 H6            1 RES     
    2176 H6         -64.9928   124.0356   -40.8778 H6            1 RES     
    2177 H6         -64.5390   125.2125   -42.1738 H6            1 RES     
    2178 H6         -63.8638   123.5350   -42.1848 H6            1 RES     
    2179 C0         -81.6735   133.0419   -44.8835 C0            1 RES     
    2180 C1         -82.9204   132.5515   -45.6171 C1            1 RES     
    2181 C1         -83.8142   132.0450   -44.8235 C1            1 RES     
    2182 C1         -83.3198   131.9796   -43.4305 C1            1 RES     
    2183 C1         -81.7791   132.1736   -43.5986 C1            1 RES     
    2184 C1         -81.2590   130.8496   -43.8942 C1            1 RES     
    2185 C1         -82.1011   129.8382   -43.7769 C1            1 RES     
    2186 S2         -83.6149   130.2825   -42.9281 S2            1 RES     
    2187 C1         -81.7438   128.4718   -44.2095 C1            1 RES     
    2188 C1         -80.4506   128.2374   -44.7020 C1            1 RES     
    2189 N3         -80.0315   127.0017   -44.9466 N3            1 RES     
    2190 C1         -80.7939   125.9003   -44.7795 C1            1 RES     
    2191 C1         -82.1400   126.0613   -44.4315 C1            1 RES     
    2192 C1         -82.6190   127.3674   -44.1350 C1            1 RES     
    2193 N3         -83.9170   127.4322   -43.7402 N3            1 RES     
    2194 S2         -84.3894   125.8492   -43.7814 S2            1 RES     
    2195 N3         -83.0283   125.0466   -44.2607 N3            1 RES     
    2196 S2         -85.0956   131.0484   -45.6136 S2            1 RES     
    2197 C1         -84.6534   131.8211   -47.2116 C1            1 RES     
    2198 C1         -83.1865   132.1470   -47.0160 C1            1 RES     
    2199 C0         -81.6602   134.5315   -44.3866 C0            1 RES     
    2200 C0         -82.5452   135.1320   -43.2429 C0            1 RES     
    2201 C0         -83.9649   135.4343   -43.7234 C0            1 RES     
    2202 C0         -84.9790   135.6410   -42.5788 C0            1 RES     
    2203 C0         -86.3795   135.3292   -43.1081 C0            1 RES     
    2204 C0         -87.5226   135.6790   -42.1569 C0            1 RES     
    2205 C0         -88.8523   135.2121   -42.7766 C0            1 RES     
    2206 C0         -90.0611   135.8106   -42.0753 C0            1 RES     
    2207 C0         -81.7193   136.2618   -42.5033 C0            1 RES     
    2208 C0         -82.1646   137.7015   -42.1610 C0            1 RES     
    2209 C0         -82.0790   138.6863   -43.3526 C0            1 RES     
    2210 C0         -81.5421   140.0755   -42.9043 C0            1 RES     
    2211 C0         -81.1336   140.9314   -44.1152 C0            1 RES     
    2212 C0         -80.0889   142.0289   -43.7984 C0            1 RES     
    2213 C0         -80.5292   143.1137   -42.8130 C0            1 RES     
    2214 C0         -79.4496   144.1995   -42.7321 C0            1 RES     
    2215 C0         -80.4592   132.8454   -45.9077 C0            1 RES     
    2216 C0         -78.9212   133.2190   -45.7956 C0            1 RES     
    2217 C0         -78.6414   134.6281   -45.2247 C0            1 RES     
    2218 C0         -77.2426   135.1812   -45.4453 C0            1 RES     
    2219 C0         -77.1287   136.6427   -44.9830 C0            1 RES     
    2220 C0         -77.4874   136.8982   -43.5224 C0            1 RES     
    2221 C0         -77.0000   138.2607   -43.0164 C0            1 RES     
    2222 C0         -77.7533   139.4260   -43.6155 C0            1 RES     
    2223 C0         -77.8983   132.1311   -45.2844 C0            1 RES     
    2224 C0         -76.7612   131.9933   -46.3441 C0            1 RES     
    2225 C0         -75.5377   131.0889   -46.1057 C0            1 RES     
    2226 C0         -74.3764   131.7577   -45.3331 C0            1 RES     
    2227 C0         -73.0475   131.0256   -45.6529 C0            1 RES     
    2228 C0         -71.8134   131.6588   -44.9812 C0            1 RES     
    2229 C0         -70.5440   130.8400   -45.2632 C0            1 RES     
    2230 C0         -69.3646   131.3297   -44.4217 C0            1 RES     
    2231 H4         -80.2675   130.8029   -44.2653 H4            1 RES     
    2232 H5         -79.6993   128.9862   -44.8396 H5            1 RES     
    2233 H4         -82.5301   132.3943   -47.8384 H4            1 RES     
    2234 H6         -80.7109   134.4943   -43.8705 H6            1 RES     
    2235 H6         -81.6201   135.2458   -45.2359 H6            1 RES     
    2236 H6         -82.6475   134.3347   -42.4767 H6            1 RES     
    2237 H6         -83.9931   136.2703   -44.4552 H6            1 RES     
    2238 H6         -84.2829   134.5258   -44.2645 H6            1 RES     
    2239 H6         -84.7925   134.9287   -41.7459 H6            1 RES     
    2240 H6         -84.9054   136.6772   -42.1954 H6            1 RES     
    2241 H6         -86.5297   135.9181   -44.0150 H6            1 RES     
    2242 H6         -86.4239   134.2493   -43.3756 H6            1 RES     
    2243 H6         -87.5216   136.7835   -42.0252 H6            1 RES     
    2244 H6         -87.3911   135.1944   -41.1659 H6            1 RES     
    2245 H6         -88.9191   135.5286   -43.8290 H6            1 RES     
    2246 H6         -88.9001   134.1011   -42.7619 H6            1 RES     
    2247 H6         -90.0832   135.5206   -41.0066 H6            1 RES     
    2248 H6         -90.0295   136.9188   -42.1645 H6            1 RES     
    2249 H6         -90.9859   135.4513   -42.5764 H6            1 RES     
    2250 H6         -81.3828   135.7976   -41.5487 H6            1 RES     
    2251 H6         -80.7548   136.4133   -43.0295 H6            1 RES     
    2252 H6         -83.0889   137.7960   -41.5611 H6            1 RES     
    2253 H6         -81.3510   138.0096   -41.4649 H6            1 RES     
    2254 H6         -81.3083   138.2979   -44.0523 H6            1 RES     
    2255 H6         -83.0363   138.7379   -43.9145 H6            1 RES     
    2256 H6         -82.2491   140.6181   -42.2409 H6            1 RES     
    2257 H6         -80.6200   139.8977   -42.3163 H6            1 RES     
    2258 H6         -80.6186   140.2820   -44.8556 H6            1 RES     
    2259 H6         -82.0469   141.3282   -44.6019 H6            1 RES     
    2260 H6         -79.7742   142.4881   -44.7602 H6            1 RES     
    2261 H6         -79.1778   141.5764   -43.3873 H6            1 RES     
    2262 H6         -80.6829   142.6660   -41.8093 H6            1 RES     
    2263 H6         -81.4816   143.5768   -43.1338 H6            1 RES     
    2264 H6         -79.2991   144.6710   -43.7278 H6            1 RES     
    2265 H6         -78.4799   143.7664   -42.4049 H6            1 RES     
    2266 H6         -79.7510   144.9896   -42.0148 H6            1 RES     
    2267 H6         -80.4978   131.8175   -46.3331 H6            1 RES     
    2268 H6         -80.7931   133.5129   -46.7368 H6            1 RES     
    2269 H6         -78.7045   133.3007   -46.8863 H6            1 RES     
    2270 H6         -78.7469   134.5921   -44.1275 H6            1 RES     
    2271 H6         -79.3531   135.3390   -45.6960 H6            1 RES     
    2272 H6         -76.5033   134.5609   -44.8919 H6            1 RES     
    2273 H6         -77.0013   135.1566   -46.5283 H6            1 RES     
    2274 H6         -76.0693   136.9272   -45.1456 H6            1 RES     
    2275 H6         -77.8073   137.2687   -45.5823 H6            1 RES     
    2276 H6         -76.9809   136.1478   -42.9396 H6            1 RES     
    2277 H6         -78.5729   136.7784   -43.3432 H6            1 RES     
    2278 H6         -75.9127   138.3725   -43.2162 H6            1 RES     
    2279 H6         -77.1605   138.3115   -41.9194 H6            1 RES     
    2280 H6         -77.3491   140.3631   -43.1796 H6            1 RES     
    2281 H6         -78.8201   139.3096   -43.3735 H6            1 RES     
    2282 H6         -77.6680   139.4922   -44.7061 H6            1 RES     
    2283 H6         -77.5358   132.3795   -44.2646 H6            1 RES     
    2284 H6         -78.3627   131.1271   -45.2435 H6            1 RES     
    2285 H6         -77.2740   131.5734   -47.2392 H6            1 RES     
    2286 H6         -76.3659   132.9790   -46.6486 H6            1 RES     
    2287 H6         -75.1416   130.9257   -47.1323 H6            1 RES     
    2288 H6         -75.8084   130.0891   -45.7008 H6            1 RES     
    2289 H6         -74.6035   131.7776   -44.2450 H6            1 RES     
    2290 H6         -74.2504   132.8047   -45.6833 H6            1 RES     
    2291 H6         -72.8728   131.0474   -46.7504 H6            1 RES     
    2292 H6         -73.1428   129.9618   -45.3528 H6            1 RES     
    2293 H6         -71.9539   131.6832   -43.8987 H6            1 RES     
    2294 H6         -71.6755   132.7089   -45.3172 H6            1 RES     
    2295 H6         -70.2922   130.9014   -46.3430 H6            1 RES     
    2296 H6         -70.7173   129.7733   -45.0026 H6            1 RES     
    2297 H6         -69.5945   131.2218   -43.3385 H6            1 RES     
    2298 H6         -69.1386   132.3940   -44.6382 H6            1 RES     
    2299 H6         -68.4665   130.7152   -44.6441 H6            1 RES     
    2300 C0         -86.2739   140.2865   -47.3991 C0            1 RES     
    2301 C1         -87.4909   139.7530   -48.1511 C1            1 RES     
    2302 C1         -88.3928   139.2377   -47.3694 C1            1 RES     
    2303 C1         -87.9263   139.2183   -45.9634 C1            1 RES     
    2304 C1         -86.3857   139.4310   -46.1014 C1            1 RES     
    2305 C1         -85.8471   138.1045   -46.3640 C1            1 RES     
    2306 C1         -86.6827   137.0880   -46.2360 C1            1 RES     
    2307 S2         -88.2058   137.5361   -45.4035 S2            1 RES     
    2308 C1         -86.3201   135.7184   -46.6602 C1            1 RES     
    2309 C1         -85.0191   135.4808   -47.1330 C1            1 RES     
    2310 N3         -84.6036   134.2423   -47.3810 N3            1 RES     
    2311 C1         -85.3724   133.1413   -47.2332 C1            1 RES     
    2312 C1         -86.7234   133.3096   -46.8990 C1            1 RES     
    2313 C1         -87.2003   134.6162   -46.6017 C1            1 RES     
    2314 N3         -88.5038   134.6844   -46.2282 N3            1 RES     
    2315 S2         -88.9807   133.1034   -46.2824 S2            1 RES     
    2316 N3         -87.6166   132.2980   -46.7467 N3            1 RES     
    2317 S2         -89.5650   138.1222   -48.1834 S2            1 RES     
    2318 C1         -89.1321   138.8887   -49.7874 C1            1 RES     
    2319 C1         -87.6906   139.2827   -49.5439 C1            1 RES     
    2320 C0         -86.3048   141.7999   -46.9453 C0            1 RES     
    2321 C0         -87.1853   142.3858   -45.7825 C0            1 RES     
    2322 C0         -88.6029   142.7950   -46.2190 C0            1 RES     
    2323 C0         -89.5842   142.7953   -45.0273 C0            1 RES     
    2324 C0         -91.0384   142.9862   -45.4794 C0            1 RES     
    2325 C0         -92.0286   142.5124   -44.3984 C0            1 RES     
    2326 C0         -93.4896   142.4860   -44.8840 C0            1 RES     
    2327 C0         -94.1712   143.8518   -44.8567 C0            1 RES     
    2328 C0         -86.3536   143.4447   -44.9439 C0            1 RES     
    2329 C0         -86.7466   144.9087   -44.6360 C0            1 RES     
    2330 C0         -86.6157   145.8726   -45.8330 C0            1 RES     
    2331 C0         -86.1029   147.2663   -45.3792 C0            1 RES     
    2332 C0         -85.6985   148.1207   -46.5899 C0            1 RES     
    2333 C0         -84.6685   149.2308   -46.2748 C0            1 RES     
    2334 C0         -85.1173   150.3051   -45.2821 C0            1 RES     
    2335 C0         -84.0480   151.4007   -45.2002 C0            1 RES     
    2336 C0         -85.0339   140.0736   -48.3910 C0            1 RES     
    2337 C0         -83.4973   140.4378   -48.2484 C0            1 RES     
    2338 C0         -83.2241   141.8392   -47.6641 C0            1 RES     
    2339 C0         -81.8209   142.3850   -47.8716 C0            1 RES     
    2340 C0         -81.7069   143.8471   -47.4170 C0            1 RES     
    2341 C0         -82.0712   144.1082   -45.9600 C0            1 RES     
    2342 C0         -81.5828   145.4720   -45.4598 C0            1 RES     
    2343 C0         -82.3297   146.6335   -46.0728 C0            1 RES     
    2344 C0         -82.4808   139.3416   -47.7346 C0            1 RES     
    2345 C0         -81.3389   139.1982   -48.7892 C0            1 RES     
    2346 C0         -80.1178   138.2894   -48.5491 C0            1 RES     
    2347 C0         -78.9554   138.9538   -47.7735 C0            1 RES     
    2348 C0         -77.6256   138.2226   -48.0937 C0            1 RES     
    2349 C0         -76.3924   138.8560   -47.4191 C0            1 RES     
    2350 C0         -75.1211   138.0392   -47.6985 C0            1 RES     
    2351 C0         -73.9446   138.5301   -46.8532 C0            1 RES     
    2352 H4         -84.8547   138.0575   -46.7312 H4            1 RES     
    2353 H5         -84.2628   136.2276   -47.2530 H5            1 RES     
    2354 H4         -86.9916   139.4611   -50.3486 H4            1 RES     
    2355 H6         -85.3508   141.7826   -46.4449 H6            1 RES     
    2356 H6         -86.2653   142.5064   -47.7998 H6            1 RES     
    2357 H6         -87.3003   141.5442   -45.0728 H6            1 RES     
    2358 H6         -88.5902   143.7540   -46.7777 H6            1 RES     
    2359 H6         -88.9639   142.0062   -46.9120 H6            1 RES     
    2360 H6         -89.5051   141.7898   -44.5616 H6            1 RES     
    2361 H6         -89.3283   143.5498   -44.2583 H6            1 RES     
    2362 H6         -91.2007   144.0449   -45.7667 H6            1 RES     
    2363 H6         -91.2091   142.3315   -46.3599 H6            1 RES     
    2364 H6         -91.9315   143.0960   -43.4579 H6            1 RES     
    2365 H6         -91.7616   141.4560   -44.1787 H6            1 RES     
    2366 H6         -94.0779   141.8314   -44.2065 H6            1 RES     
    2367 H6         -93.5351   142.0368   -45.9010 H6            1 RES     
    2368 H6         -94.2455   144.2131   -43.8111 H6            1 RES     
    2369 H6         -93.6215   144.6111   -45.4349 H6            1 RES     
    2370 H6         -95.1988   143.7522   -45.2703 H6            1 RES     
    2371 H6         -86.1467   142.9646   -43.9616 H6            1 RES     
    2372 H6         -85.3365   143.5418   -45.3758 H6            1 RES     
    2373 H6         -87.6921   145.0429   -44.0777 H6            1 RES     
    2374 H6         -85.9453   145.2000   -43.9180 H6            1 RES     
    2375 H6         -85.8245   145.4708   -46.5014 H6            1 RES     
    2376 H6         -87.5589   145.9254   -46.4183 H6            1 RES     
    2377 H6         -86.8269   147.8036   -44.7291 H6            1 RES     
    2378 H6         -85.1890   147.1002   -44.7755 H6            1 RES     
    2379 H6         -85.1756   147.4749   -47.3276 H6            1 RES     
    2380 H6         -86.6169   148.5036   -47.0772 H6            1 RES     
    2381 H6         -84.3656   149.6973   -47.2368 H6            1 RES     
    2382 H6         -83.7503   148.7879   -45.8697 H6            1 RES     
    2383 H6         -85.2617   149.8506   -44.2801 H6            1 RES     
    2384 H6         -86.0763   150.7594   -45.5959 H6            1 RES     
    2385 H6         -83.9064   151.8785   -46.1942 H6            1 RES     
    2386 H6         -83.0730   150.9743   -44.8797 H6            1 RES     
    2387 H6         -84.3534   152.1838   -44.4771 H6            1 RES     
    2388 H6         -85.0605   139.0391   -48.8019 H6            1 RES     
    2389 H6         -85.3495   140.7291   -49.2365 H6            1 RES     
    2390 H6         -83.2627   140.5274   -49.3346 H6            1 RES     
    2391 H6         -83.3544   141.7967   -46.5675 H6            1 RES     
    2392 H6         -83.9273   142.5532   -48.1440 H6            1 RES     
    2393 H6         -81.0882   141.7631   -47.3117 H6            1 RES     
    2394 H6         -81.5715   142.3566   -48.9527 H6            1 RES     
    2395 H6         -80.6470   144.1303   -47.5782 H6            1 RES     
    2396 H6         -82.3835   144.4696   -48.0219 H6            1 RES     
    2397 H6         -81.5654   143.3613   -45.3731 H6            1 RES     
    2398 H6         -83.1582   143.9892   -45.7842 H6            1 RES     
    2399 H6         -80.4942   145.5805   -45.6555 H6            1 RES     
    2400 H6         -81.7484   145.5296   -44.3639 H6            1 RES     
    2401 H6         -81.9283   147.5733   -45.6407 H6            1 RES     
    2402 H6         -83.3978   146.5185   -45.8385 H6            1 RES     
    2403 H6         -82.2353   146.6909   -47.1634 H6            1 RES     
    2404 H6         -82.1197   139.5865   -46.7135 H6            1 RES     
    2405 H6         -82.9483   138.3393   -47.6960 H6            1 RES     
    2406 H6         -81.8502   138.7812   -49.6866 H6            1 RES     
    2407 H6         -80.9387   140.1831   -49.0903 H6            1 RES     
    2408 H6         -79.7197   138.1271   -49.5752 H6            1 RES     
    2409 H6         -80.3912   137.2889   -48.1474 H6            1 RES     
    2410 H6         -79.1834   138.9703   -46.6855 H6            1 RES     
    2411 H6         -78.8282   140.0016   -48.1203 H6            1 RES     
    2412 H6         -77.4495   138.2467   -49.1909 H6            1 RES     
    2413 H6         -77.7207   137.1580   -47.7963 H6            1 RES     
    2414 H6         -76.5340   138.8801   -46.3368 H6            1 RES     
    2415 H6         -76.2549   139.9064   -47.7538 H6            1 RES     
    2416 H6         -74.8664   138.1020   -48.7776 H6            1 RES     
    2417 H6         -75.2933   136.9720   -47.4390 H6            1 RES     
    2418 H6         -74.1770   138.4205   -45.7708 H6            1 RES     
    2419 H6         -73.7201   139.5952   -47.0676 H6            1 RES     
    2420 H6         -73.0446   137.9178   -47.0738 H6            1 RES     
    2421 C0         -90.8799   147.2946   -49.7228 C0            1 RES     
    2422 C1         -92.0983   146.8104   -50.5024 C1            1 RES     
    2423 C1         -93.0116   146.2760   -49.7507 C1            1 RES     
    2424 C1         -92.5551   146.1690   -48.3460 C1            1 RES     
    2425 C1         -91.0128   146.3965   -48.4573 C1            1 RES     
    2426 C1         -90.4549   145.0843   -48.7633 C1            1 RES     
    2427 C1         -91.2831   144.0538   -48.7089 C1            1 RES     
    2428 S2         -92.8389   144.4370   -47.9292 S2            1 RES     
    2429 C1         -90.9008   142.7117   -49.1830 C1            1 RES     
    2430 C1         -89.6202   142.5264   -49.7278 C1            1 RES     
    2431 N3         -89.1773   141.3049   -50.0108 N3            1 RES     
    2432 C1         -89.9038   140.1790   -49.8340 C1            1 RES     
    2433 C1         -91.2464   140.3001   -49.4489 C1            1 RES     
    2434 C1         -91.7477   141.5851   -49.1104 C1            1 RES     
    2435 N3         -93.0324   141.6065   -48.6691 N3            1 RES     
    2436 S2         -93.4661   140.0141   -48.7310 S2            1 RES     
    2437 N3         -92.1013   139.2594   -49.2700 N3            1 RES     
    2438 S2         -94.2162   145.2414   -50.6147 S2            1 RES     
    2439 C1         -93.7177   146.0139   -52.1963 C1            1 RES     
    2440 C1         -92.2854   146.4037   -51.9139 C1            1 RES     
    2441 C0         -90.8760   148.7748   -49.2100 C0            1 RES     
    2442 C0         -91.7815   149.4273   -48.1097 C0            1 RES     
    2443 C0         -93.1705   149.8222   -48.6375 C0            1 RES     
    2444 C0         -94.1795   150.0616   -47.4918 C0            1 RES     
    2445 C0         -95.5991   150.2205   -48.0363 C0            1 RES     
    2446 C0         -96.6544   150.3211   -46.9208 C0            1 RES     
    2447 C0         -98.0639   150.4128   -47.5240 C0            1 RES     
    2448 C0         -99.1641   150.4717   -46.4767 C0            1 RES     
    2449 C0         -90.9113   150.5536   -47.4013 C0            1 RES     
    2450 C0         -91.3037   152.0073   -47.0273 C0            1 RES     
    2451 C0         -91.2632   152.9975   -48.2207 C0            1 RES     
    2452 C0         -90.7429   154.3993   -47.7896 C0            1 RES     
    2453 C0         -90.3598   155.2530   -49.0139 C0            1 RES     
    2454 C0         -89.3176   156.3616   -48.7231 C0            1 RES     
    2455 C0         -89.7438   157.4486   -47.7350 C0            1 RES     
    2456 C0         -88.6614   158.5337   -47.6708 C0            1 RES     
    2457 C0         -89.6432   147.1288   -50.7285 C0            1 RES     
    2458 C0         -88.1184   147.5422   -50.6156 C0            1 RES     
    2459 C0         -87.8684   148.9662   -50.0646 C0            1 RES     
    2460 C0         -86.4774   149.5323   -50.3086 C0            1 RES     
    2461 C0         -86.3682   151.0021   -49.8762 C0            1 RES     
    2462 C0         -86.7015   151.2766   -48.4137 C0            1 RES     
    2463 C0         -86.1969   152.6403   -47.9302 C0            1 RES     
    2464 C0         -86.9567   153.8013   -48.5255 C0            1 RES     
    2465 C0         -87.0683   146.4753   -50.1163 C0            1 RES     
    2466 C0         -85.9528   146.3404   -51.2005 C0            1 RES     
    2467 C0         -84.7193   145.4449   -50.9856 C0            1 RES     
    2468 C0         -83.5530   146.1182   -50.2264 C0            1 RES     
    2469 C0         -82.2270   145.3839   -50.5506 C0            1 RES     
    2470 C0         -80.9891   146.0242   -49.8926 C0            1 RES     
    2471 C0         -79.7227   145.1989   -50.1677 C0            1 RES     
    2472 C0         -78.5396   145.6979   -49.3371 C0            1 RES     
    2473 H4         -89.4448   145.0598   -49.0938 H4            1 RES     
    2474 H5         -88.9000   143.3039   -49.8800 H5            1 RES     
    2475 H4         -91.5895   146.6507   -52.7031 H4            1 RES     
    2476 H6         -89.9393   148.7079   -48.6580 H6            1 RES     
    2477 H6         -90.7931   149.4870   -50.0569 H6            1 RES     
    2478 H6         -91.9464   148.6497   -47.3315 H6            1 RES     
    2479 H6         -93.1055   150.6866   -49.3324 H6            1 RES     
    2480 H6         -93.5540   148.9527   -49.2109 H6            1 RES     
    2481 H6         -94.1696   149.1772   -46.8183 H6            1 RES     
    2482 H6         -93.9171   150.9565   -46.9012 H6            1 RES     
    2483 H6         -95.6248   151.1344   -48.6579 H6            1 RES     
    2484 H6         -95.8392   149.3324   -48.6632 H6            1 RES     
    2485 H6         -96.4558   151.2178   -46.2942 H6            1 RES     
    2486 H6         -96.5959   149.4126   -46.2832 H6            1 RES     
    2487 H6         -98.1453   151.3424   -48.1108 H6            1 RES     
    2488 H6         -98.2448   149.5310   -48.1798 H6            1 RES     
    2489 H6         -99.1494   149.5624   -45.8423 H6            1 RES     
    2490 H6         -99.0422   151.3775   -45.8470 H6            1 RES     
    2491 H6        -100.1470   150.5311   -46.9945 H6            1 RES     
    2492 H6         -90.5171   150.0733   -46.4776 H6            1 RES     
    2493 H6         -89.9842   150.7109   -47.9911 H6            1 RES     
    2494 H6         -92.1850   152.1294   -46.3720 H6            1 RES     
    2495 H6         -90.4439   152.2986   -46.3817 H6            1 RES     
    2496 H6         -90.5000   152.6214   -48.9353 H6            1 RES     
    2497 H6         -92.2317   153.0345   -48.7637 H6            1 RES     
    2498 H6         -91.4503   154.9368   -47.1228 H6            1 RES     
    2499 H6         -89.8139   154.2410   -47.2086 H6            1 RES     
    2500 H6         -89.8497   154.6036   -49.7580 H6            1 RES     
    2501 H6         -91.2826   155.6392   -49.4923 H6            1 RES     
    2502 H6         -89.0214   156.8172   -49.6924 H6            1 RES     
    2503 H6         -88.3966   155.9196   -48.3261 H6            1 RES     
    2504 H6         -89.8823   157.0034   -46.7281 H6            1 RES     
    2505 H6         -90.7008   157.9098   -48.0441 H6            1 RES     
    2506 H6         -88.5216   159.0027   -48.6690 H6            1 RES     
    2507 H6         -87.6880   158.1000   -47.3551 H6            1 RES     
    2508 H6         -88.9518   159.3257   -46.9512 H6            1 RES     
    2509 H6         -89.6537   146.1031   -51.1608 H6            1 RES     
    2510 H6         -89.9809   147.7988   -51.5541 H6            1 RES     
    2511 H6         -87.9059   147.6286   -51.7074 H6            1 RES     
    2512 H6         -87.9814   148.9564   -48.9685 H6            1 RES     
    2513 H6         -88.5899   149.6573   -50.5485 H6            1 RES     
    2514 H6         -85.7255   148.9291   -49.7535 H6            1 RES     
    2515 H6         -86.2469   149.4914   -51.3937 H6            1 RES     
    2516 H6         -85.3122   151.2868   -50.0596 H6            1 RES     
    2517 H6         -87.0572   151.6156   -50.4779 H6            1 RES     
    2518 H6         -86.1838   150.5338   -47.8330 H6            1 RES     
    2519 H6         -87.7842   151.1602   -48.2120 H6            1 RES     
    2520 H6         -85.1129   152.7451   -48.1515 H6            1 RES     
    2521 H6         -86.3361   152.7020   -46.8307 H6            1 RES     
    2522 H6         -86.5430   154.7418   -48.1058 H6            1 RES     
    2523 H6         -88.0173   153.6861   -48.2609 H6            1 RES     
    2524 H6         -86.8960   153.8569   -49.6181 H6            1 RES     
    2525 H6         -86.6846   146.7420   -49.1100 H6            1 RES     
    2526 H6         -87.5213   145.4673   -50.0483 H6            1 RES     
    2527 H6         -86.4801   145.9141   -52.0841 H6            1 RES     
    2528 H6         -85.5699   147.3289   -51.5136 H6            1 RES     
    2529 H6         -84.3362   145.2876   -52.0183 H6            1 RES     
    2530 H6         -84.9786   144.4428   -50.5793 H6            1 RES     
    2531 H6         -83.7716   146.1427   -49.1368 H6            1 RES     
    2532 H6         -83.4312   147.1635   -50.5832 H6            1 RES     
    2533 H6         -82.0598   145.3952   -51.6495 H6            1 RES     
    2534 H6         -82.3211   144.3231   -50.2395 H6            1 RES     
    2535 H6         -81.1247   146.0656   -48.8098 H6            1 RES     
    2536 H6         -80.8512   147.0692   -50.2436 H6            1 RES     
    2537 H6         -79.4748   145.2444   -51.2492 H6            1 RES     
    2538 H6         -79.8971   144.1364   -49.8911 H6            1 RES     
    2539 H6         -78.7662   145.6054   -48.2518 H6            1 RES     
    2540 H6         -78.3128   146.7588   -49.5689 H6            1 RES     
    2541 H6         -77.6435   145.0787   -49.5539 H6            1 RES     
    2542 C0         -95.5413   154.5077   -52.3087 C0            1 RES     
    2543 C1         -96.7742   154.0569   -53.0915 C1            1 RES     
    2544 C1         -97.6733   153.4836   -52.3498 C1            1 RES     
    2545 C1         -97.2082   153.3304   -50.9559 C1            1 RES     
    2546 C1         -95.6710   153.5637   -51.0758 C1            1 RES     
    2547 C1         -95.1114   152.2526   -51.4056 C1            1 RES     
    2548 C1         -95.9273   151.2107   -51.3475 C1            1 RES     
    2549 S2         -97.4954   151.5859   -50.5930 S2            1 RES     
    2550 C1         -95.5164   149.8550   -51.7639 C1            1 RES     
    2551 C1         -94.2107   149.6585   -52.2424 C1            1 RES     
    2552 N3         -93.7489   148.4289   -52.4614 N3            1 RES     
    2553 C1         -94.4799   147.3052   -52.2837 C1            1 RES     
    2554 C1         -95.8369   147.4324   -51.9596 C1            1 RES     
    2555 C1         -96.3586   148.7247   -51.6857 C1            1 RES     
    2556 N3         -97.6611   148.7513   -51.2996 N3            1 RES     
    2557 S2         -98.0843   147.1547   -51.3295 S2            1 RES     
    2558 N3         -96.6949   146.3924   -51.7872 N3            1 RES     
    2559 S2         -98.8889   152.4748   -53.2298 S2            1 RES     
    2560 C1         -98.4319   153.3109   -54.7885 C1            1 RES     
    2561 C1         -96.9928   153.7102   -54.5135 C1            1 RES     
    2562 C0         -95.5128   155.9804   -51.7565 C0            1 RES     
    2563 C0         -96.4038   156.6082   -50.6341 C0            1 RES     
    2564 C0         -97.7910   157.0586   -51.1259 C0            1 RES     
    2565 C0         -98.7986   157.1164   -49.9569 C0            1 RES     
    2566 C0        -100.2427   157.3190   -50.4379 C0            1 RES     
    2567 C0        -101.2504   156.8536   -49.3672 C0            1 RES     
    2568 C0        -102.7072   156.8397   -49.8629 C0            1 RES     
    2569 C0        -103.3863   158.2051   -49.8052 C0            1 RES     
    2570 C0         -95.5365   157.6891   -49.8556 C0            1 RES     
    2571 C0         -95.9168   159.1534   -49.5047 C0            1 RES     
    2572 C0         -95.8286   160.1417   -50.6946 C0            1 RES     
    2573 C0         -95.3299   161.5472   -50.2479 C0            1 RES     
    2574 C0         -94.9386   162.4085   -51.4652 C0            1 RES     
    2575 C0         -93.9064   163.5232   -51.1654 C0            1 RES     
    2576 C0         -94.3499   164.6145   -50.1894 C0            1 RES     
    2577 C0         -93.2745   165.7068   -50.1231 C0            1 RES     
    2578 C0         -94.2992   154.3490   -53.3077 C0            1 RES     
    2579 C0         -92.7653   154.7392   -53.1560 C0            1 RES     
    2580 C0         -92.5049   156.1539   -52.5779 C0            1 RES     
    2581 C0         -91.1037   156.7075   -52.7881 C0            1 RES     
    2582 C0         -90.9829   158.1697   -52.3340 C0            1 RES     
    2583 C0         -91.3224   158.4336   -50.8710 C0            1 RES     
    2584 C0         -90.8024   159.7894   -50.3773 C0            1 RES     
    2585 C0         -91.5477   160.9634   -50.9669 C0            1 RES     
    2586 C0         -91.7318   153.6585   -52.6451 C0            1 RES     
    2587 C0         -90.5817   153.5397   -53.6960 C0            1 RES     
    2588 C0         -89.3528   152.6393   -53.4618 C0            1 RES     
    2589 C0         -88.1939   153.3035   -52.6801 C0            1 RES     
    2590 C0         -86.8622   152.5744   -52.9994 C0            1 RES     
    2591 C0         -85.6294   153.2075   -52.3243 C0            1 RES     
    2592 C0         -84.3570   152.3931   -52.6070 C0            1 RES     
    2593 C0         -83.1801   152.8829   -51.7615 C0            1 RES     
    2594 H4         -94.0991   152.2271   -51.7226 H4            1 RES     
    2595 H5         -93.4891   150.4364   -52.3866 H5            1 RES     
    2596 H4         -96.3191   154.0168   -55.3007 H4            1 RES     
    2597 H6         -94.5830   155.8776   -51.2018 H6            1 RES     
    2598 H6         -95.4136   156.7178   -52.5786 H6            1 RES     
    2599 H6         -96.5615   155.7830   -49.9056 H6            1 RES     
    2600 H6         -97.7330   158.0014   -51.7092 H6            1 RES     
    2601 H6         -98.1615   156.2639   -51.8072 H6            1 RES     
    2602 H6         -98.7486   156.1224   -49.4630 H6            1 RES     
    2603 H6         -98.5422   157.8842   -49.2011 H6            1 RES     
    2604 H6        -100.3910   158.3765   -50.7365 H6            1 RES     
    2605 H6        -100.4056   156.6617   -51.3180 H6            1 RES     
    2606 H6        -101.1565   157.4310   -48.4225 H6            1 RES     
    2607 H6        -100.9957   155.7937   -49.1492 H6            1 RES     
    2608 H6        -103.3012   156.1714   -49.2038 H6            1 RES     
    2609 H6        -102.7472   156.4126   -50.8887 H6            1 RES     
    2610 H6        -103.4685   158.5374   -48.7504 H6            1 RES     
    2611 H6        -102.8286   158.9785   -50.3560 H6            1 RES     
    2612 H6        -104.4108   158.1186   -50.2292 H6            1 RES     
    2613 H6         -95.2268   157.1965   -48.9070 H6            1 RES     
    2614 H6         -94.5670   157.8142   -50.3805 H6            1 RES     
    2615 H6         -96.8327   159.2793   -48.8973 H6            1 RES     
    2616 H6         -95.0806   159.4383   -48.8250 H6            1 RES     
    2617 H6         -95.0406   159.7616   -51.3795 H6            1 RES     
    2618 H6         -96.7796   160.1821   -51.2666 H6            1 RES     
    2619 H6         -96.0540   162.0776   -49.5929 H6            1 RES     
    2620 H6         -94.4110   161.3936   -49.6493 H6            1 RES     
    2621 H6         -94.4184   161.7630   -52.2053 H6            1 RES     
    2622 H6         -95.8578   162.7932   -51.9528 H6            1 RES     
    2623 H6         -93.6034   163.9757   -52.1339 H6            1 RES     
    2624 H6         -92.9866   163.0881   -50.7562 H6            1 RES     
    2625 H6         -94.4964   164.1757   -49.1810 H6            1 RES     
    2626 H6         -95.3062   165.0684   -50.5121 H6            1 RES     
    2627 H6         -93.1281   166.1690   -51.1237 H6            1 RES     
    2628 H6         -92.3014   165.2816   -49.7952 H6            1 RES     
    2629 H6         -93.5763   166.5029   -49.4127 H6            1 RES     
    2630 H6         -94.3213   153.3342   -53.7640 H6            1 RES     
    2631 H6         -94.6183   155.0406   -54.1223 H6            1 RES     
    2632 H6         -92.5312   154.8329   -54.2421 H6            1 RES     
    2633 H6         -92.6289   156.1319   -51.4826 H6            1 RES     
    2634 H6         -93.2097   156.8614   -53.0626 H6            1 RES     
    2635 H6         -90.3679   156.0888   -52.2284 H6            1 RES     
    2636 H6         -90.8571   156.6797   -53.8698 H6            1 RES     
    2637 H6         -89.9226   158.4450   -52.5064 H6            1 RES     
    2638 H6         -91.6608   158.7979   -52.9322 H6            1 RES     
    2639 H6         -90.8212   157.6766   -50.2919 H6            1 RES     
    2640 H6         -92.4074   158.3310   -50.6782 H6            1 RES     
    2641 H6         -89.7171   159.8836   -50.5971 H6            1 RES     
    2642 H6         -90.9420   159.8475   -49.2780 H6            1 RES     
    2643 H6         -91.1242   161.8985   -50.5444 H6            1 RES     
    2644 H6         -92.6084   160.8595   -50.7005 H6            1 RES     
    2645 H6         -91.4885   161.0229   -52.0595 H6            1 RES     
    2646 H6         -91.3803   153.9035   -51.6205 H6            1 RES     
    2647 H6         -92.1843   152.6496   -52.6156 H6            1 RES     
    2648 H6         -91.0842   153.1269   -54.6001 H6            1 RES     
    2649 H6         -90.1893   154.5300   -53.9872 H6            1 RES     
    2650 H6         -88.9521   152.4891   -54.4887 H6            1 RES     
    2651 H6         -89.6200   151.6338   -53.0693 H6            1 RES     
    2652 H6         -88.4239   153.3157   -51.5925 H6            1 RES     
    2653 H6         -88.0682   154.3529   -53.0230 H6            1 RES     
    2654 H6         -86.6851   152.6003   -54.0965 H6            1 RES     
    2655 H6         -86.9558   151.5095   -52.7018 H6            1 RES     
    2656 H6         -85.7707   153.2267   -51.2424 H6            1 RES     
    2657 H6         -85.4932   154.2591   -52.6557 H6            1 RES     
    2658 H6         -84.1032   152.4595   -53.6861 H6            1 RES     
    2659 H6         -84.5279   151.3249   -52.3505 H6            1 RES     
    2660 H6         -83.4111   152.7700   -50.6791 H6            1 RES     
    2661 H6         -82.9567   153.9488   -51.9730 H6            1 RES     
    2662 H6         -82.2797   152.2722   -51.9848 H6            1 RES     
    2663 C0        -100.1139   161.7164   -54.6982 C0            1 RES     
    2664 C1        -101.3499   161.2391   -55.4553 C1            1 RES     
    2665 C1        -102.2556   160.7141   -54.6855 C1            1 RES     
    2666 C1        -101.7786   160.6078   -53.2888 C1            1 RES     
    2667 C1        -100.2365   160.8178   -53.4281 C1            1 RES     
    2668 C1         -99.7051   159.4969   -53.7450 C1            1 RES     
    2669 C1        -100.5464   158.4774   -53.6757 C1            1 RES     
    2670 S2        -102.0758   158.8813   -52.8579 S2            1 RES     
    2671 C1        -100.1884   157.1325   -54.1591 C1            1 RES     
    2672 C1         -98.9287   156.9410   -54.7491 C1            1 RES     
    2673 N3         -98.4929   155.7170   -55.0310 N3            1 RES     
    2674 C1         -99.2119   154.5950   -54.8179 C1            1 RES     
    2675 C1        -100.5478   154.7212   -54.3972 C1            1 RES     
    2676 C1        -101.0363   156.0104   -54.0531 C1            1 RES     
    2677 N3        -102.3078   156.0405   -53.5759 N3            1 RES     
    2678 S2        -102.7488   154.4497   -53.6144 S2            1 RES     
    2679 N3        -101.4022   153.6855   -54.1851 N3            1 RES     
    2680 S2        -103.4882   159.6890   -55.5238 S2            1 RES     
    2681 C1        -103.0298   160.4823   -57.1050 C1            1 RES     
    2682 C1        -101.5774   160.8360   -56.8628 C1            1 RES     
    2683 C0        -100.0965   163.2061   -54.1980 C0            1 RES     
    2684 C0        -100.9834   163.8372   -53.0739 C0            1 RES     
    2685 C0        -102.3826   164.2617   -53.5558 C0            1 RES     
    2686 C0        -103.3873   164.2959   -52.3828 C0            1 RES     
    2687 C0        -104.8378   164.4583   -52.8610 C0            1 RES     
    2688 C0        -105.8349   163.9675   -51.7922 C0            1 RES     
    2689 C0        -107.2886   163.9039   -52.2956 C0            1 RES     
    2690 C0        -108.0158   165.2443   -52.2458 C0            1 RES     
    2691 C0        -100.1217   164.9275   -52.3090 C0            1 RES     
    2692 C0        -100.5229   166.3831   -51.9603 C0            1 RES     
    2693 C0        -100.4388   167.3680   -53.1530 C0            1 RES     
    2694 C0         -99.9225   168.7666   -52.7094 C0            1 RES     
    2695 C0         -99.5292   169.6234   -53.9271 C0            1 RES     
    2696 C0         -98.4890   170.7297   -53.6263 C0            1 RES     
    2697 C0         -98.9224   171.8136   -52.6370 C0            1 RES     
    2698 C0         -97.8443   172.9021   -52.5676 C0            1 RES     
    2699 C0         -98.8849   161.5312   -55.7099 C0            1 RES     
    2700 C0         -97.3494   161.9178   -55.5889 C0            1 RES     
    2701 C0         -97.0795   163.3341   -55.0256 C0            1 RES     
    2702 C0         -95.6814   163.8877   -55.2547 C0            1 RES     
    2703 C0         -95.5603   165.3510   -54.8029 C0            1 RES     
    2704 C0         -95.8946   165.6109   -53.3375 C0            1 RES     
    2705 C0         -95.3870   166.9708   -52.8430 C0            1 RES     
    2706 C0         -96.1436   168.1404   -53.4290 C0            1 RES     
    2707 C0         -96.3161   160.8381   -55.0783 C0            1 RES     
    2708 C0         -95.1778   160.7059   -56.1400 C0            1 RES     
    2709 C0         -93.9481   159.8069   -55.9076 C0            1 RES     
    2710 C0         -92.7872   160.4751   -55.1331 C0            1 RES     
    2711 C0         -91.4570   159.7425   -55.4499 C0            1 RES     
    2712 C0         -90.2241   160.3737   -54.7731 C0            1 RES     
    2713 C0         -88.9539   159.5530   -55.0471 C0            1 RES     
    2714 C0         -87.7794   160.0404   -54.1969 C0            1 RES     
    2715 H4         -98.7029   159.4575   -54.0935 H4            1 RES     
    2716 H5         -98.2170   157.7169   -54.9406 H5            1 RES     
    2717 H4        -100.8968   161.0734   -57.6677 H4            1 RES     
    2718 H6         -99.1562   163.1360   -53.6610 H6            1 RES     
    2719 H6        -100.0206   163.9223   -55.0420 H6            1 RES     
    2720 H6        -101.1248   163.0214   -52.3335 H6            1 RES     
    2721 H6        -102.3474   165.2043   -54.1412 H6            1 RES     
    2722 H6        -102.7406   163.4592   -54.2336 H6            1 RES     
    2723 H6        -103.3115   163.3037   -51.8884 H6            1 RES     
    2724 H6        -103.1466   165.0713   -51.6294 H6            1 RES     
    2725 H6        -105.0146   165.5100   -53.1608 H6            1 RES     
    2726 H6        -104.9833   163.7938   -53.7381 H6            1 RES     
    2727 H6        -105.7630   164.5518   -50.8500 H6            1 RES     
    2728 H6        -105.5483   162.9171   -51.5684 H6            1 RES     
    2729 H6        -107.3095   163.4737   -53.3206 H6            1 RES     
    2730 H6        -107.8630   163.2174   -51.6381 H6            1 RES     
    2731 H6        -108.1141   165.5773   -51.1926 H6            1 RES     
    2732 H6        -107.4842   166.0336   -52.7981 H6            1 RES     
    2733 H6        -109.0350   165.1204   -52.6734 H6            1 RES     
    2734 H6         -99.7968   164.4409   -51.3623 H6            1 RES     
    2735 H6         -99.1579   165.0641   -52.8416 H6            1 RES     
    2736 H6        -101.4418   166.4987   -51.3554 H6            1 RES     
    2737 H6         -99.6920   166.6755   -51.2777 H6            1 RES     
    2738 H6         -99.6604   166.9834   -53.8463 H6            1 RES     
    2739 H6        -101.3939   167.4140   -53.7180 H6            1 RES     
    2740 H6        -100.6374   169.3030   -52.0494 H6            1 RES     
    2741 H6         -99.0006   168.6039   -52.1178 H6            1 RES     
    2742 H6         -99.0157   168.9758   -54.6701 H6            1 RES     
    2743 H6        -100.4486   170.0134   -54.4088 H6            1 RES     
    2744 H6         -98.1904   171.1890   -54.5931 H6            1 RES     
    2745 H6         -97.5692   170.2846   -53.2270 H6            1 RES     
    2746 H6         -99.0636   171.3659   -51.6316 H6            1 RES     
    2747 H6         -99.8797   172.2735   -52.9480 H6            1 RES     
    2748 H6         -97.7042   173.3735   -53.5647 H6            1 RES     
    2749 H6         -96.8704   172.4712   -52.2500 H6            1 RES     
    2750 H6         -98.1399   173.6918   -51.8474 H6            1 RES     
    2751 H6         -98.9135   160.5063   -56.1431 H6            1 RES     
    2752 H6         -99.2144   162.2031   -56.5371 H6            1 RES     
    2753 H6         -97.1298   161.9994   -56.6792 H6            1 RES     
    2754 H6         -97.1909   163.3120   -53.9285 H6            1 RES     
    2755 H6         -97.7910   164.0392   -55.5047 H6            1 RES     
    2756 H6         -94.9391   163.2713   -54.7012 H6            1 RES     
    2757 H6         -95.4460   163.8573   -56.3390 H6            1 RES     
    2758 H6         -94.5019   165.6299   -54.9806 H6            1 RES     
    2759 H6         -96.2429   165.9774   -55.3983 H6            1 RES     
    2760 H6         -95.3840   164.8555   -52.7617 H6            1 RES     
    2761 H6         -96.9782   165.4998   -53.1406 H6            1 RES     
    2762 H6         -94.3029   167.0748   -53.0641 H6            1 RES     
    2763 H6         -95.5258   167.0247   -51.7432 H6            1 RES     
    2764 H6         -95.7262   169.0769   -53.0039 H6            1 RES     
    2765 H6         -97.2044   168.0302   -53.1633 H6            1 RES     
    2766 H6         -96.0841   168.2036   -54.5215 H6            1 RES     
    2767 H6         -95.9529   161.0921   -54.0604 H6            1 RES     
    2768 H6         -96.7751   159.8318   -55.0319 H6            1 RES     
    2769 H6         -95.6895   160.2850   -57.0352 H6            1 RES     
    2770 H6         -94.7868   161.6932   -56.4440 H6            1 RES     
    2771 H6         -93.5516   159.6506   -56.9352 H6            1 RES     
    2772 H6         -94.2142   158.8040   -55.5074 H6            1 RES     
    2773 H6         -93.0158   160.4935   -54.0454 H6            1 RES     
    2774 H6         -92.6611   161.5224   -55.4821 H6            1 RES     
    2775 H6         -91.2788   159.7645   -56.5468 H6            1 RES     
    2776 H6         -91.5541   158.6787   -55.1503 H6            1 RES     
    2777 H6         -90.3693   160.3983   -53.6917 H6            1 RES     
    2778 H6         -90.0829   161.4236   -55.1080 H6            1 RES     
    2779 H6         -88.6946   159.6145   -56.1251 H6            1 RES     
    2780 H6         -89.1303   158.4864   -54.7880 H6            1 RES     
    2781 H6         -88.0167   159.9318   -53.1154 H6            1 RES     
    2782 H6         -87.5504   161.1046   -54.4105 H6            1 RES     
    2783 H6         -86.8804   159.4250   -54.4134 H6            1 RES     
    2784 C0        -104.7025   168.9253   -57.1601 C0            1 RES     
    2785 C1        -105.9257   168.4218   -57.9181 C1            1 RES     
    2786 C1        -106.8291   167.8960   -57.1469 C1            1 RES     
    2787 C1        -106.3630   167.8241   -55.7444 C1            1 RES     
    2788 C1        -104.8223   168.0487   -55.8754 C1            1 RES     
    2789 C1        -104.2716   166.7268   -56.1547 C1            1 RES     
    2790 C1        -105.1003   165.7001   -56.0574 C1            1 RES     
    2791 S2        -106.6462   166.1089   -55.2715 S2            1 RES     
    2792 C1        -104.7307   164.3441   -56.5036 C1            1 RES     
    2793 C1        -103.4366   164.1322   -57.0173 C1            1 RES     
    2794 N3        -103.0167   162.9015   -57.2905 N3            1 RES     
    2795 C1        -103.7642   161.7866   -57.1234 C1            1 RES     
    2796 C1        -105.1138   161.9380   -56.7570 C1            1 RES     
    2797 C1        -105.6183   163.2350   -56.4420 C1            1 RES     
    2798 N3        -106.8894   163.2792   -56.0158 N3            1 RES     
    2799 S2        -107.3508   161.6944   -56.0757 S2            1 RES     
    2800 N3        -105.9759   160.9080   -56.5865 N3            1 RES     
    2801 S2        -108.0410   166.8433   -57.9810 S2            1 RES     
    2802 C1        -107.5908   167.6381   -59.5644 C1            1 RES     
    2803 C1        -106.1414   168.0007   -59.3223 C1            1 RES     
    2804 C0        -104.7123   170.4251   -56.6840 C0            1 RES     
    2805 C0        -105.6020   171.0492   -55.5538 C0            1 RES     
    2806 C0        -107.0056   171.4702   -56.0268 C0            1 RES     
    2807 C0        -108.0030   171.5182   -54.8471 C0            1 RES     
    2808 C0        -109.4539   171.6997   -55.3166 C0            1 RES     
    2809 C0        -110.4538   171.2473   -54.2336 C0            1 RES     
    2810 C0        -111.9116   171.2032   -54.7290 C0            1 RES     
    2811 C0        -112.6128   172.5589   -54.7038 C0            1 RES     
    2812 C0        -104.7470   172.1362   -54.7755 C0            1 RES     
    2813 C0        -105.1478   173.5927   -54.4326 C0            1 RES     
    2814 C0        -105.0577   174.5736   -55.6263 C0            1 RES     
    2815 C0        -104.5362   175.9691   -55.1819 C0            1 RES     
    2816 C0        -104.1385   176.8227   -56.3989 C0            1 RES     
    2817 C0        -103.0986   177.9285   -56.0961 C0            1 RES     
    2818 C0        -103.5336   179.0107   -55.1059 C0            1 RES     
    2819 C0        -102.4560   180.0993   -55.0334 C0            1 RES     
    2820 C0        -103.4660   168.7345   -58.1608 C0            1 RES     
    2821 C0        -101.9337   169.1276   -58.0330 C0            1 RES     
    2822 C0        -101.6697   170.5393   -57.4587 C0            1 RES     
    2823 C0        -100.2727   171.0973   -57.6832 C0            1 RES     
    2824 C0        -100.1569   172.5603   -57.2299 C0            1 RES     
    2825 C0        -100.4967   172.8192   -55.7660 C0            1 RES     
    2826 C0         -99.9911   174.1789   -55.2693 C0            1 RES     
    2827 C0        -100.7416   175.3477   -55.8641 C0            1 RES     
    2828 C0        -100.8990   168.0453   -57.5307 C0            1 RES     
    2829 C0         -99.7634   167.9188   -58.5956 C0            1 RES     
    2830 C0         -98.5352   167.0162   -58.3708 C0            1 RES     
    2831 C0         -97.3740   167.6776   -57.5916 C0            1 RES     
    2832 C0         -96.0446   166.9466   -57.9138 C0            1 RES     
    2833 C0         -94.8120   167.5748   -57.2343 C0            1 RES     
    2834 C0         -93.5408   166.7593   -57.5174 C0            1 RES     
    2835 C0         -92.3654   167.2447   -56.6674 C0            1 RES     
    2836 H4        -103.2694   166.6914   -56.5034 H4            1 RES     
    2837 H5        -102.7049   164.8921   -57.1613 H5            1 RES     
    2838 H4        -105.4568   168.2281   -60.1272 H4            1 RES     
    2839 H6        -103.7682   170.3774   -56.1558 H6            1 RES     
    2840 H6        -104.6479   171.1331   -57.5361 H6            1 RES     
    2841 H6        -105.7408   170.2310   -54.8167 H6            1 RES     
    2842 H6        -106.9719   172.4102   -56.6165 H6            1 RES     
    2843 H6        -107.3697   170.6638   -56.6972 H6            1 RES     
    2844 H6        -107.9354   170.5279   -54.3479 H6            1 RES     
    2845 H6        -107.7512   172.2948   -54.0996 H6            1 RES     
    2846 H6        -109.6130   172.7510   -55.6288 H6            1 RES     
    2847 H6        -109.6170   171.0253   -56.1831 H6            1 RES     
    2848 H6        -110.3660   171.8481   -53.3030 H6            1 RES     
    2849 H6        -110.1857   170.1963   -53.9915 H6            1 RES     
    2850 H6        -112.4965   170.5422   -54.0547 H6            1 RES     
    2851 H6        -111.9460   170.7522   -55.7453 H6            1 RES     
    2852 H6        -112.7020   172.9152   -53.6576 H6            1 RES     
    2853 H6        -112.0688   173.3283   -55.2725 H6            1 RES     
    2854 H6        -113.6355   172.4460   -55.1264 H6            1 RES     
    2855 H6        -104.4400   171.6499   -53.8229 H6            1 RES     
    2856 H6        -103.7740   172.2701   -55.2920 H6            1 RES     
    2857 H6        -106.0685   173.7139   -53.8322 H6            1 RES     
    2858 H6        -104.3205   173.8843   -53.7452 H6            1 RES     
    2859 H6        -104.2809   174.1840   -56.3186 H6            1 RES     
    2860 H6        -106.0128   174.6234   -56.1915 H6            1 RES     
    2861 H6        -105.2502   176.5084   -54.5231 H6            1 RES     
    2862 H6        -103.6159   175.8029   -54.5891 H6            1 RES     
    2863 H6        -103.6239   176.1737   -57.1399 H6            1 RES     
    2864 H6        -105.0576   177.2113   -56.8818 H6            1 RES     
    2865 H6        -102.7987   178.3890   -57.0619 H6            1 RES     
    2866 H6        -102.1793   177.4829   -55.6965 H6            1 RES     
    2867 H6        -103.6759   178.5615   -54.1013 H6            1 RES     
    2868 H6        -104.4907   179.4705   -55.4176 H6            1 RES     
    2869 H6        -102.3151   180.5724   -56.0297 H6            1 RES     
    2870 H6        -101.4824   179.6678   -54.7155 H6            1 RES     
    2871 H6        -102.7525   180.8875   -54.3121 H6            1 RES     
    2872 H6        -103.4861   167.7043   -58.5820 H6            1 RES     
    2873 H6        -103.7942   169.3959   -58.9971 H6            1 RES     
    2874 H6        -101.7111   169.2191   -59.1218 H6            1 RES     
    2875 H6        -101.7865   170.5080   -56.3614 H6            1 RES     
    2876 H6        -102.3826   171.2449   -57.9353 H6            1 RES     
    2877 H6         -99.5296   170.4811   -57.1306 H6            1 RES     
    2878 H6        -100.0353   171.0697   -58.7671 H6            1 RES     
    2879 H6         -99.0990   172.8430   -57.4050 H6            1 RES     
    2880 H6        -100.8402   173.1850   -57.8264 H6            1 RES     
    2881 H6         -99.9869   172.0659   -55.1887 H6            1 RES     
    2882 H6        -101.5812   172.7059   -55.5730 H6            1 RES     
    2883 H6         -98.9054   174.2816   -55.4833 H6            1 RES     
    2884 H6        -100.1372   174.2339   -54.1705 H6            1 RES     
    2885 H6        -100.3291   176.2852   -55.4363 H6            1 RES     
    2886 H6        -101.8051   175.2373   -55.6095 H6            1 RES     
    2887 H6        -100.6689   175.4084   -56.9562 H6            1 RES     
    2888 H6        -100.5331   168.2933   -56.5123 H6            1 RES     
    2889 H6        -101.3579   167.0387   -57.4891 H6            1 RES     
    2890 H6        -100.2771   167.5045   -59.4927 H6            1 RES     
    2891 H6         -99.3716   168.9081   -58.8926 H6            1 RES     
    2892 H6         -98.1395   166.8669   -59.3998 H6            1 RES     
    2893 H6         -98.8025   166.0109   -57.9777 H6            1 RES     
    2894 H6         -97.6024   167.6884   -56.5037 H6            1 RES     
    2895 H6         -97.2473   168.7273   -57.9334 H6            1 RES     
    2896 H6         -95.8673   166.9757   -59.0107 H6            1 RES     
    2897 H6         -96.1408   165.8809   -57.6202 H6            1 RES     
    2898 H6         -94.9556   167.5904   -56.1524 H6            1 RES     
    2899 H6         -94.6735   168.6274   -57.5620 H6            1 RES     
    2900 H6         -93.2845   166.8289   -58.5957 H6            1 RES     
    2901 H6         -93.7139   165.6905   -57.2649 H6            1 RES     
    2902 H6         -92.5997   167.1288   -55.5860 H6            1 RES     
    2903 H6         -92.1402   168.3109   -56.8751 H6            1 RES     
    2904 H6         -91.4653   166.6333   -56.8901 H6            1 RES     
    2905 C0        -109.3183   176.0835   -59.6046 C0            1 RES     
    2906 C1        -110.5476   175.5912   -60.3624 C1            1 RES     
    2907 C1        -111.4476   175.0574   -59.5934 C1            1 RES     
    2908 C1        -110.9779   174.9668   -58.1942 C1            1 RES     
    2909 C1        -109.4380   175.1972   -58.3261 C1            1 RES     
    2910 C1        -108.8807   173.8789   -58.6117 C1            1 RES     
    2911 C1        -109.7034   172.8457   -58.5255 C1            1 RES     
    2912 S2        -111.2574   173.2412   -57.7511 S2            1 RES     
    2913 C1        -109.3201   171.4919   -58.9681 C1            1 RES     
    2914 C1        -108.0285   171.2872   -59.4783 C1            1 RES     
    2915 N3        -107.5945   170.0587   -59.7481 N3            1 RES     
    2916 C1        -108.3385   168.9420   -59.5883 C1            1 RES     
    2917 C1        -109.6844   169.0800   -59.2220 C1            1 RES     
    2918 C1        -110.1785   170.3726   -58.8996 C1            1 RES     
    2919 N3        -111.4713   170.4096   -58.4837 N3            1 RES     
    2920 S2        -111.9199   168.8210   -58.5434 S2            1 RES     
    2921 N3        -110.5541   168.0495   -59.0554 N3            1 RES     
    2922 S2        -112.6712   174.0215   -60.4308 S2            1 RES     
    2923 C1        -112.2188   174.8178   -62.0131 C1            1 RES     
    2924 C1        -110.7694   175.1829   -61.7692 C1            1 RES     
    2925 C0        -109.3132   177.5796   -59.1184 C0            1 RES     
    2926 C0        -110.1989   178.2093   -57.9906 C0            1 RES     
    2927 C0        -111.5998   178.6340   -58.4659 C0            1 RES     
    2928 C0        -112.5988   178.6685   -57.2880 C0            1 RES     
    2929 C0        -114.0492   178.8472   -57.7589 C0            1 RES     
    2930 C0        -115.0475   178.3612   -56.6894 C0            1 RES     
    2931 C0        -116.5033   178.3155   -57.1890 C0            1 RES     
    2932 C0        -117.2131   179.6656   -57.1416 C0            1 RES     
    2933 C0        -109.3402   179.2983   -57.2188 C0            1 RES     
    2934 C0        -109.7377   180.7569   -56.8770 C0            1 RES     
    2935 C0        -109.6444   181.7394   -58.0701 C0            1 RES     
    2936 C0        -109.1329   183.1389   -57.6237 C0            1 RES     
    2937 C0        -108.7349   183.9961   -58.8393 C0            1 RES     
    2938 C0        -107.7008   185.1066   -58.5322 C0            1 RES     
    2939 C0        -108.1462   186.1916   -57.5499 C0            1 RES     
    2940 C0        -107.0720   187.2837   -57.4742 C0            1 RES     
    2941 C0        -108.0849   175.8947   -60.6098 C0            1 RES     
    2942 C0        -106.5517   176.2891   -60.4876 C0            1 RES     
    2943 C0        -106.2866   177.7066   -59.9246 C0            1 RES     
    2944 C0        -104.8895   178.2634   -60.1518 C0            1 RES     
    2945 C0        -104.7721   179.7287   -59.7050 C0            1 RES     
    2946 C0        -105.1124   179.9961   -58.2426 C0            1 RES     
    2947 C0        -104.6052   181.3568   -57.7507 C0            1 RES     
    2948 C0        -105.3569   182.5246   -58.3452 C0            1 RES     
    2949 C0        -105.5154   175.2119   -59.9784 C0            1 RES     
    2950 C0        -104.3779   175.0827   -61.0408 C0            1 RES     
    2951 C0        -103.1486   174.1836   -60.8092 C0            1 RES     
    2952 C0        -101.9866   174.8538   -60.0385 C0            1 RES     
    2953 C0        -100.6579   174.1200   -60.3559 C0            1 RES     
    2954 C0         -99.4231   174.7567   -59.6883 C0            1 RES     
    2955 C0         -98.1538   173.9356   -59.9654 C0            1 RES     
    2956 C0         -96.9738   174.4303   -59.1276 C0            1 RES     
    2957 H4        -107.8751   173.8496   -58.9509 H4            1 RES     
    2958 H5        -107.2957   172.0549   -59.6152 H5            1 RES     
    2959 H4        -110.0918   175.4318   -62.5734 H4            1 RES     
    2960 H6        -108.3713   177.5199   -58.5855 H6            1 RES     
    2961 H6        -109.2426   178.2910   -59.9668 H6            1 RES     
    2962 H6        -110.3381   177.3911   -57.2528 H6            1 RES     
    2963 H6        -111.5653   179.5786   -59.0484 H6            1 RES     
    2964 H6        -111.9614   177.8332   -59.1445 H6            1 RES     
    2965 H6        -112.5283   177.6731   -56.7995 H6            1 RES     
    2966 H6        -112.3497   179.4379   -56.5312 H6            1 RES     
    2967 H6        -114.2158   179.9032   -58.0503 H6            1 RES     
    2968 H6        -114.2042   178.1898   -58.6396 H6            1 RES     
    2969 H6        -114.9669   178.9410   -55.7451 H6            1 RES     
    2970 H6        -114.7710   177.3069   -56.4711 H6            1 RES     
    2971 H6        -116.5319   177.8832   -58.2130 H6            1 RES     
    2972 H6        -117.0849   177.6378   -56.5286 H6            1 RES     
    2973 H6        -117.3050   180.0034   -56.0895 H6            1 RES     
    2974 H6        -116.6730   180.4472   -57.6973 H6            1 RES     
    2975 H6        -118.2344   179.5535   -57.5673 H6            1 RES     
    2976 H6        -109.0299   178.8136   -56.2663 H6            1 RES     
    2977 H6        -108.3695   179.4286   -57.7399 H6            1 RES     
    2978 H6        -110.6600   180.8778   -56.2783 H6            1 RES     
    2979 H6        -108.9102   181.0484   -56.1897 H6            1 RES     
    2980 H6        -108.8608   181.3536   -58.7569 H6            1 RES     
    2981 H6        -110.5959   181.7848   -58.6415 H6            1 RES     
    2982 H6        -109.8527   183.6744   -56.9681 H6            1 RES     
    2983 H6        -108.2141   182.9778   -57.0267 H6            1 RES     
    2984 H6        -108.2150   183.3495   -59.5787 H6            1 RES     
    2985 H6        -109.6529   184.3819   -59.3270 H6            1 RES     
    2986 H6        -107.3952   185.5648   -59.4974 H6            1 RES     
    2987 H6        -106.7832   184.6662   -58.1233 H6            1 RES     
    2988 H6        -108.2946   185.7461   -56.5446 H6            1 RES     
    2989 H6        -109.1022   186.6469   -57.8710 H6            1 RES     
    2990 H6        -106.9246   187.7531   -58.4713 H6            1 RES     
    2991 H6        -106.0994   186.8567   -57.1473 H6            1 RES     
    2992 H6        -107.3759   188.0743   -56.7586 H6            1 RES     
    2993 H6        -108.1076   174.8653   -61.0327 H6            1 RES     
    2994 H6        -108.4149   176.5582   -61.4435 H6            1 RES     
    2995 H6        -106.3314   176.3719   -61.5776 H6            1 RES     
    2996 H6        -106.4007   177.6851   -58.8275 H6            1 RES     
    2997 H6        -106.9994   178.4090   -60.4058 H6            1 RES     
    2998 H6        -104.1471   177.6499   -59.5953 H6            1 RES     
    2999 H6        -104.6516   178.2305   -61.2354 H6            1 RES     
    3000 H6        -103.7132   180.0079   -59.8800 H6            1 RES     
    3001 H6        -105.4535   180.3516   -60.3050 H6            1 RES     
    3002 H6        -104.6034   179.2462   -57.6615 H6            1 RES     
    3003 H6        -106.1966   179.8851   -58.0493 H6            1 RES     
    3004 H6        -103.5197   181.4583   -57.9664 H6            1 RES     
    3005 H6        -104.7494   181.4149   -56.6518 H6            1 RES     
    3006 H6        -104.9405   183.4619   -57.9209 H6            1 RES     
    3007 H6        -106.4192   182.4154   -58.0854 H6            1 RES     
    3008 H6        -105.2907   182.5839   -59.4374 H6            1 RES     
    3009 H6        -105.1529   175.4649   -58.9601 H6            1 RES     
    3010 H6        -105.9713   174.2042   -59.9345 H6            1 RES     
    3011 H6        -104.8898   174.6623   -61.9362 H6            1 RES     
    3012 H6        -103.9879   176.0707   -61.3439 H6            1 RES     
    3013 H6        -102.7542   174.0255   -61.8374 H6            1 RES     
    3014 H6        -103.4142   173.1815   -60.4070 H6            1 RES     
    3015 H6        -102.2124   174.8758   -58.9502 H6            1 RES     
    3016 H6        -101.8611   175.9000   -60.3914 H6            1 RES     
    3017 H6        -100.4837   174.1359   -61.4536 H6            1 RES     
    3018 H6        -100.7534   173.0581   -60.0491 H6            1 RES     
    3019 H6         -99.5638   174.7883   -58.6060 H6            1 RES     
    3020 H6         -99.2847   175.8044   -60.0310 H6            1 RES     
    3021 H6         -97.9022   173.9900   -61.0457 H6            1 RES     
    3022 H6         -98.3272   172.8706   -59.6978 H6            1 RES     
    3023 H6         -97.2031   174.3294   -58.0437 H6            1 RES     
    3024 H6         -96.7474   175.4930   -59.3510 H6            1 RES     
    3025 H6         -96.0759   173.8141   -59.3464 H6            1 RES     
    3026 C0        -113.9081   183.2673   -62.0511 C0            1 RES     
    3027 C1        -115.1431   182.7729   -62.7983 C1            1 RES     
    3028 C1        -116.0397   182.2464   -62.0198 C1            1 RES     
    3029 C1        -115.5566   182.1589   -60.6245 C1            1 RES     
    3030 C1        -114.0170   182.3809   -60.7720 C1            1 RES     
    3031 C1        -113.4709   181.0596   -61.0671 C1            1 RES     
    3032 C1        -114.2997   180.0318   -60.9722 C1            1 RES     
    3033 S2        -115.8387   180.4369   -60.1723 S2            1 RES     
    3034 C1        -113.9311   178.6767   -61.4221 C1            1 RES     
    3035 C1        -112.6489   178.4658   -61.9531 C1            1 RES     
    3036 N3        -112.2222   177.2351   -62.2214 N3            1 RES     
    3037 C1        -112.9665   176.1214   -62.0428 C1            1 RES     
    3038 C1        -114.3084   176.2661   -61.6617 C1            1 RES     
    3039 C1        -114.7933   177.5616   -61.3392 C1            1 RES     
    3040 N3        -116.0805   177.6060   -60.9073 N3            1 RES     
    3041 S2        -116.5366   176.0191   -60.9545 S2            1 RES     
    3042 N3        -115.1802   175.2396   -61.4792 N3            1 RES     
    3043 S2        -117.2727   181.2099   -62.8428 S2            1 RES     
    3044 C1        -116.8309   181.9981   -64.4312 C1            1 RES     
    3045 C1        -115.3775   182.3595   -64.2015 C1            1 RES     
    3046 C0        -113.9054   184.7641   -61.5650 C0            1 RES     
    3047 C0        -114.7878   185.3896   -60.4317 C0            1 RES     
    3048 C0        -116.1929   185.8105   -60.8984 C0            1 RES     
    3049 C0        -117.1877   185.8366   -59.7169 C0            1 RES     
    3050 C0        -118.6396   186.0208   -60.1820 C0            1 RES     
    3051 C0        -119.6351   185.5307   -59.1120 C0            1 RES     
    3052 C0        -121.0934   185.5047   -59.6044 C0            1 RES     
    3053 C0        -121.7826   186.8651   -59.5486 C0            1 RES     
    3054 C0        -113.9297   186.4800   -59.6614 C0            1 RES     
    3055 C0        -114.3291   187.9384   -59.3208 C0            1 RES     
    3056 C0        -114.2364   188.9213   -60.5137 C0            1 RES     
    3057 C0        -113.7229   190.3203   -60.0668 C0            1 RES     
    3058 C0        -113.3273   191.1788   -61.2820 C0            1 RES     
    3059 C0        -112.2915   192.2884   -60.9785 C0            1 RES     
    3060 C0        -112.7295   193.3714   -59.9904 C0            1 RES     
    3061 C0        -111.6541   194.4626   -59.9203 C0            1 RES     
    3062 C0        -112.6808   183.0800   -63.0637 C0            1 RES     
    3063 C0        -111.1467   183.4737   -62.9470 C0            1 RES     
    3064 C0        -110.8805   184.8901   -62.3824 C0            1 RES     
    3065 C0        -109.4844   185.4480   -62.6123 C0            1 RES     
    3066 C0        -109.3657   186.9117   -62.1617 C0            1 RES     
    3067 C0        -109.7018   187.1743   -60.6976 C0            1 RES     
    3068 C0        -109.1941   188.5343   -60.2041 C0            1 RES     
    3069 C0        -109.9480   189.7032   -60.7942 C0            1 RES     
    3070 C0        -110.1087   182.3964   -62.4407 C0            1 RES     
    3071 C0        -108.9704   182.2717   -63.5034 C0            1 RES     
    3072 C0        -107.7398   181.3731   -63.2756 C0            1 RES     
    3073 C0        -106.5790   182.0392   -62.4994 C0            1 RES     
    3074 C0        -105.2488   181.3084   -62.8200 C0            1 RES     
    3075 C0        -104.0156   181.9381   -62.1425 C0            1 RES     
    3076 C0        -102.7453   181.1197   -62.4221 C0            1 RES     
    3077 C0        -101.5693   181.6056   -61.5732 C0            1 RES     
    3078 H4        -112.4702   181.0240   -61.4199 H4            1 RES     
    3079 H5        -111.9164   179.2305   -62.1072 H5            1 RES     
    3080 H4        -114.7034   182.5972   -65.0121 H4            1 RES     
    3081 H6        -112.9604   184.7082   -61.0380 H6            1 RES     
    3082 H6        -113.8420   185.4756   -62.4140 H6            1 RES     
    3083 H6        -114.9203   184.5701   -59.6943 H6            1 RES     
    3084 H6        -116.1637   186.7579   -61.4764 H6            1 RES     
    3085 H6        -116.5554   185.0119   -61.5788 H6            1 RES     
    3086 H6        -117.1162   184.8375   -59.2359 H6            1 RES     
    3087 H6        -116.9351   186.6004   -58.9555 H6            1 RES     
    3088 H6        -118.8064   187.0787   -60.4680 H6            1 RES     
    3089 H6        -118.7999   185.3690   -61.0655 H6            1 RES     
    3090 H6        -119.5454   186.1008   -58.1626 H6            1 RES     
    3091 H6        -119.3657   184.4721   -58.9053 H6            1 RES     
    3092 H6        -121.6809   184.8318   -58.9443 H6            1 RES     
    3093 H6        -121.1323   185.0782   -60.6305 H6            1 RES     
    3094 H6        -121.8632   187.2008   -58.4948 H6            1 RES     
    3095 H6        -121.2329   187.6393   -60.1059 H6            1 RES     
    3096 H6        -122.8080   186.7703   -59.9688 H6            1 RES     
    3097 H6        -113.6194   185.9968   -58.7082 H6            1 RES     
    3098 H6        -112.9588   186.6105   -60.1821 H6            1 RES     
    3099 H6        -115.2519   188.0580   -58.7226 H6            1 RES     
    3100 H6        -113.5022   188.2307   -58.6333 H6            1 RES     
    3101 H6        -113.4541   188.5352   -61.2018 H6            1 RES     
    3102 H6        -115.1887   188.9677   -61.0837 H6            1 RES     
    3103 H6        -114.4411   190.8555   -59.4091 H6            1 RES     
    3104 H6        -112.8029   190.1581   -59.4720 H6            1 RES     
    3105 H6        -112.8094   190.5327   -62.0230 H6            1 RES     
    3106 H6        -114.2462   191.5663   -61.7658 H6            1 RES     
    3107 H6        -111.9924   192.7483   -61.9450 H6            1 RES     
    3108 H6        -111.3714   191.8464   -60.5768 H6            1 RES     
    3109 H6        -112.8709   192.9236   -58.9851 H6            1 RES     
    3110 H6        -113.6874   193.8291   -60.3026 H6            1 RES     
    3111 H6        -111.5141   194.9339   -60.9175 H6            1 RES     
    3112 H6        -110.6794   194.0340   -59.6018 H6            1 RES     
    3113 H6        -111.9521   195.2518   -59.2007 H6            1 RES     
    3114 H6        -112.7055   182.0512   -63.4878 H6            1 RES     
    3115 H6        -113.0156   183.7436   -63.8955 H6            1 RES     
    3116 H6        -110.9299   183.5567   -64.0375 H6            1 RES     
    3117 H6        -110.9905   184.8656   -61.2848 H6            1 RES     
    3118 H6        -111.5954   185.5932   -62.8595 H6            1 RES     
    3119 H6        -108.7403   184.8335   -62.0590 H6            1 RES     
    3120 H6        -109.2495   185.4179   -63.6967 H6            1 RES     
    3121 H6        -108.3072   187.1909   -62.3383 H6            1 RES     
    3122 H6        -110.0481   187.5370   -62.7583 H6            1 RES     
    3123 H6        -109.1908   186.4218   -60.1204 H6            1 RES     
    3124 H6        -110.7855   187.0626   -60.5016 H6            1 RES     
    3125 H6        -108.1093   188.6368   -60.4226 H6            1 RES     
    3126 H6        -109.3355   188.5905   -59.1048 H6            1 RES     
    3127 H6        -109.5305   190.6397   -60.3692 H6            1 RES     
    3128 H6        -111.0094   189.5936   -60.5311 H6            1 RES     
    3129 H6        -109.8852   189.7645   -61.8866 H6            1 RES     
    3130 H6        -109.7465   182.6470   -61.4214 H6            1 RES     
    3131 H6        -110.5635   181.3879   -62.3997 H6            1 RES     
    3132 H6        -109.4817   181.8539   -64.4002 H6            1 RES     
    3133 H6        -108.5811   183.2608   -63.8033 H6            1 RES     
    3134 H6        -107.3440   181.2213   -64.3042 H6            1 RES     
    3135 H6        -108.0046   180.3685   -62.8792 H6            1 RES     
    3136 H6        -106.8071   182.0536   -61.4116 H6            1 RES     
    3137 H6        -106.4539   183.0880   -62.8448 H6            1 RES     
    3138 H6        -105.0718   181.3346   -63.9170 H6            1 RES     
    3139 H6        -105.3446   180.2435   -62.5238 H6            1 RES     
    3140 H6        -104.1590   181.9579   -61.0607 H6            1 RES     
    3141 H6        -103.8758   182.9894   -62.4736 H6            1 RES     
    3142 H6        -102.4885   181.1850   -63.5005 H6            1 RES     
    3143 H6        -102.9202   180.0520   -62.1660 H6            1 RES     
    3144 H6        -101.8041   181.4935   -60.4915 H6            1 RES     
    3145 H6        -101.3418   182.6707   -61.7842 H6            1 RES     
    3146 H6        -100.6703   180.9917   -61.7937 H6            1 RES     
    3147 C0        -118.4762   190.4214   -64.4815 C0            1 RES     
    3148 C1        -119.6874   189.9147   -65.2571 C1            1 RES     
    3149 C1        -120.6047   189.3997   -64.4978 C1            1 RES     
    3150 C1        -120.1556   189.3367   -63.0871 C1            1 RES     
    3151 C1        -118.6118   189.5525   -63.1973 C1            1 RES     
    3152 C1        -118.0609   188.2321   -63.4700 C1            1 RES     
    3153 C1        -118.8980   187.2116   -63.3831 C1            1 RES     
    3154 S2        -120.4489   187.6275   -62.6058 S2            1 RES     
    3155 C1        -118.5343   185.8577   -63.8319 C1            1 RES     
    3156 C1        -117.2530   185.6445   -64.3632 C1            1 RES     
    3157 N3        -116.8300   184.4136   -64.6326 N3            1 RES     
    3158 C1        -117.5770   183.3022   -64.4557 C1            1 RES     
    3159 C1        -118.9191   183.4496   -64.0752 C1            1 RES     
    3160 C1        -119.4003   184.7462   -63.7518 C1            1 RES     
    3161 N3        -120.6882   184.7949   -63.3218 N3            1 RES     
    3162 S2        -121.1492   183.2099   -63.3708 S2            1 RES     
    3163 N3        -119.7941   182.4262   -63.8939 N3            1 RES     
    3164 S2        -121.8023   188.3417   -65.3431 S2            1 RES     
    3165 C1        -121.3036   189.0887   -66.9380 C1            1 RES     
    3166 C1        -119.8699   189.4796   -66.6615 C1            1 RES     
    3167 C0        -118.4882   191.9104   -63.9960 C0            1 RES     
    3168 C0        -119.3968   192.5535   -62.8919 C0            1 RES     
    3169 C0        -120.8000   192.9027   -63.4122 C0            1 RES     
    3170 C0        -121.8051   193.1779   -62.2704 C0            1 RES     
    3171 C0        -123.2398   193.1198   -62.7956 C0            1 RES     
    3172 C0        -124.2969   193.3765   -61.7101 C0            1 RES     
    3173 C0        -125.7103   193.1427   -62.2712 C0            1 RES     
    3174 C0        -126.8073   193.5109   -61.2845 C0            1 RES     
    3175 C0        -118.5416   193.6859   -62.1804 C0            1 RES     
    3176 C0        -118.9553   195.1290   -61.8026 C0            1 RES     
    3177 C0        -118.9024   196.1230   -62.9913 C0            1 RES     
    3178 C0        -118.3643   197.5143   -62.5513 C0            1 RES     
    3179 C0        -117.9611   198.3651   -63.7693 C0            1 RES     
    3180 C0        -116.9147   199.4648   -63.4635 C0            1 RES     
    3181 C0        -117.3497   200.5511   -62.4786 C0            1 RES     
    3182 C0        -116.2680   201.6354   -62.4027 C0            1 RES     
    3183 C0        -117.2329   190.2411   -65.4757 C0            1 RES     
    3184 C0        -115.7084   190.6537   -65.3532 C0            1 RES     
    3185 C0        -115.4576   192.0719   -64.7904 C0            1 RES     
    3186 C0        -114.0656   192.6387   -65.0252 C0            1 RES     
    3187 C0        -113.9587   194.1057   -64.5826 C0            1 RES     
    3188 C0        -114.3023   194.3707   -63.1203 C0            1 RES     
    3189 C0        -113.8002   195.7327   -62.6279 C0            1 RES     
    3190 C0        -114.5512   196.8971   -63.2297 C0            1 RES     
    3191 C0        -114.6630   189.5817   -64.8550 C0            1 RES     
    3192 C0        -113.5437   189.4502   -65.9359 C0            1 RES     
    3193 C0        -112.3093   188.5563   -65.7199 C0            1 RES     
    3194 C0        -111.1505   189.2262   -64.9466 C0            1 RES     
    3195 C0        -109.8197   188.4991   -65.2685 C0            1 RES     
    3196 C0        -108.5907   189.1296   -64.5860 C0            1 RES     
    3197 C0        -107.3181   188.3152   -64.8649 C0            1 RES     
    3198 C0        -106.1465   188.8020   -64.0109 C0            1 RES     
    3199 H4        -117.0542   188.1956   -63.8091 H4            1 RES     
    3200 H5        -116.5184   186.4074   -64.5175 H5            1 RES     
    3201 H4        -119.1711   189.7097   -67.4533 H4            1 RES     
    3202 H6        -117.5489   191.8671   -63.4519 H6            1 RES     
    3203 H6        -118.4186   192.6129   -64.8530 H6            1 RES     
    3204 H6        -119.5447   191.7795   -62.1076 H6            1 RES     
    3205 H6        -120.7721   193.7321   -64.1514 H6            1 RES     
    3206 H6        -121.1623   191.9969   -63.9390 H6            1 RES     
    3207 H6        -121.7117   192.3880   -61.4940 H6            1 RES     
    3208 H6        -121.6124   194.1621   -61.8069 H6            1 RES     
    3209 H6        -123.3410   193.8867   -63.5748 H6            1 RES     
    3210 H6        -123.4104   192.1127   -63.2378 H6            1 RES     
    3211 H6        -124.1920   194.4242   -61.3518 H6            1 RES     
    3212 H6        -124.1419   192.6838   -60.8555 H6            1 RES     
    3213 H6        -125.8777   193.7714   -63.1520 H6            1 RES     
    3214 H6        -125.8196   192.0773   -62.5726 H6            1 RES     
    3215 H6        -126.7284   192.9027   -60.3618 H6            1 RES     
    3216 H6        -126.7401   194.5913   -61.0335 H6            1 RES     
    3217 H6        -127.7959   193.3257   -61.7596 H6            1 RES     
    3218 H6        -118.1507   193.2078   -61.2537 H6            1 RES     
    3219 H6        -117.6086   193.8507   -62.7590 H6            1 RES     
    3220 H6        -119.8463   195.2373   -61.1577 H6            1 RES     
    3221 H6        -118.1082   195.4219   -61.1412 H6            1 RES     
    3222 H6        -118.1425   195.7430   -63.7072 H6            1 RES     
    3223 H6        -119.8687   196.1714   -63.5374 H6            1 RES     
    3224 H6        -119.0681   198.0582   -61.8860 H6            1 RES     
    3225 H6        -117.4397   197.3410   -61.9674 H6            1 RES     
    3226 H6        -117.4477   197.7131   -64.5088 H6            1 RES     
    3227 H6        -118.8768   198.7580   -64.2552 H6            1 RES     
    3228 H6        -116.6036   199.9207   -64.4278 H6            1 RES     
    3229 H6        -116.0008   199.0161   -63.0567 H6            1 RES     
    3230 H6        -117.4992   200.1046   -61.4738 H6            1 RES     
    3231 H6        -118.3034   201.0128   -62.7972 H6            1 RES     
    3232 H6        -116.1202   202.1062   -63.3990 H6            1 RES     
    3233 H6        -115.2976   201.2007   -62.0791 H6            1 RES     
    3234 H6        -116.5651   202.4259   -61.6842 H6            1 RES     
    3235 H6        -117.2404   189.2097   -65.8945 H6            1 RES     
    3236 H6        -117.5660   190.8988   -66.3133 H6            1 RES     
    3237 H6        -115.4901   190.7466   -66.4432 H6            1 RES     
    3238 H6        -115.5733   192.0498   -63.6936 H6            1 RES     
    3239 H6        -116.1775   192.7676   -65.2708 H6            1 RES     
    3240 H6        -113.3162   192.0317   -64.4712 H6            1 RES     
    3241 H6        -113.8307   192.6048   -66.1095 H6            1 RES     
    3242 H6        -112.9020   194.3927   -64.7586 H6            1 RES     
    3243 H6        -114.6441   194.7232   -65.1848 H6            1 RES     
    3244 H6        -113.7919   193.6215   -62.5387 H6            1 RES     
    3245 H6        -115.3871   194.2552   -62.9283 H6            1 RES     
    3246 H6        -112.7142   195.8362   -62.8394 H6            1 RES     
    3247 H6        -113.9493   195.7915   -61.5295 H6            1 RES     
    3248 H6        -114.1409   197.8370   -62.8049 H6            1 RES     
    3249 H6        -115.6154   196.7852   -62.9772 H6            1 RES     
    3250 H6        -114.4754   196.9530   -64.3219 H6            1 RES     
    3251 H6        -114.2813   189.8441   -63.8468 H6            1 RES     
    3252 H6        -115.1202   188.5747   -64.7906 H6            1 RES     
    3253 H6        -114.0674   189.0269   -66.8231 H6            1 RES     
    3254 H6        -113.1602   190.4403   -66.2433 H6            1 RES     
    3255 H6        -111.9188   188.4078   -66.7511 H6            1 RES     
    3256 H6        -112.5688   187.5507   -65.3225 H6            1 RES     
    3257 H6        -111.3783   189.2394   -63.8588 H6            1 RES     
    3258 H6        -111.0291   190.2755   -65.2916 H6            1 RES     
    3259 H6        -109.6418   188.5288   -66.3654 H6            1 RES     
    3260 H6        -109.9136   187.4332   -64.9756 H6            1 RES     
    3261 H6        -108.7380   189.1451   -63.5042 H6            1 RES     
    3262 H6        -108.4531   190.1824   -64.9134 H6            1 RES     
    3263 H6        -107.0587   188.3848   -65.9424 H6            1 RES     
    3264 H6        -107.4912   187.2464   -64.6125 H6            1 RES     
    3265 H6        -106.3849   188.6859   -62.9304 H6            1 RES     
    3266 H6        -105.9219   189.8685   -64.2182 H6            1 RES     
    3267 H6        -105.2450   188.1915   -64.2305 H6            1 RES     
    3268 C0        -123.0906   197.5823   -67.0569 C0            1 RES     
    3269 C1        -124.3314   197.1676   -67.8504 C1            1 RES     
    3270 C1        -125.2387   196.5989   -67.1187 C1            1 RES     
    3271 C1        -124.7796   196.4181   -65.7276 C1            1 RES     
    3272 C1        -123.2389   196.6304   -65.8390 C1            1 RES     
    3273 C1        -122.6894   195.3228   -66.1784 C1            1 RES     
    3274 C1        -123.5147   194.2898   -66.1404 C1            1 RES     
    3275 S2        -125.0907   194.6764   -65.4008 S2            1 RES     
    3276 C1        -123.1041   192.9346   -66.5493 C1            1 RES     
    3277 C1        -121.7955   192.7337   -67.0190 C1            1 RES     
    3278 N3        -121.3333   191.5034   -67.2260 N3            1 RES     
    3279 C1        -122.0654   190.3798   -67.0428 C1            1 RES     
    3280 C1        -123.4241   190.5105   -66.7264 C1            1 RES     
    3281 C1        -123.9467   191.8052   -66.4655 C1            1 RES     
    3282 N3        -125.2504   191.8352   -66.0836 N3            1 RES     
    3283 S2        -125.6734   190.2387   -66.1012 S2            1 RES     
    3284 N3        -124.2824   189.4722   -66.5474 N3            1 RES     
    3285 S2        -126.4996   195.6590   -68.0049 S2            1 RES     
    3286 C1        -126.0176   196.5074   -69.5507 C1            1 RES     
    3287 C1        -124.5685   196.8695   -69.2802 C1            1 RES     
    3288 C0        -123.0352   199.0301   -66.4626 C0            1 RES     
    3289 C0        -123.9218   199.6517   -65.3374 C0            1 RES     
    3290 C0        -125.3201   199.9887   -65.8485 C0            1 RES     
    3291 C0        -126.3384   200.2492   -64.7187 C0            1 RES     
    3292 C0        -127.7387   199.9424   -65.2485 C0            1 RES     
    3293 C0        -128.8805   200.3373   -64.3131 C0            1 RES     
    3294 C0        -130.2126   199.8327   -64.8985 C0            1 RES     
    3295 C0        -131.4153   200.5226   -64.2730 C0            1 RES     
    3296 C0        -123.0661   200.7861   -64.6332 C0            1 RES     
    3297 C0        -123.4912   202.2262   -64.2461 C0            1 RES     
    3298 C0        -123.4470   203.2350   -65.4255 C0            1 RES     
    3299 C0        -122.9430   204.6395   -64.9754 C0            1 RES     
    3300 C0        -122.5531   205.5106   -66.1880 C0            1 RES     
    3301 C0        -121.5153   206.6178   -65.8808 C0            1 RES     
    3302 C0        -121.9615   207.7135   -64.9108 C0            1 RES     
    3303 C0        -120.8877   208.8072   -64.8471 C0            1 RES     
    3304 C0        -121.8572   197.4333   -68.0634 C0            1 RES     
    3305 C0        -120.3263   197.8262   -67.9153 C0            1 RES     
    3306 C0        -120.0663   199.2452   -67.3455 C0            1 RES     
    3307 C0        -118.6677   199.8034   -67.5538 C0            1 RES     
    3308 C0        -118.5574   201.2667   -67.0954 C0            1 RES     
    3309 C0        -118.9001   201.5273   -65.6321 C0            1 RES     
    3310 C0        -118.3951   202.8867   -65.1331 C0            1 RES     
    3311 C0        -119.1522   204.0565   -65.7164 C0            1 RES     
    3312 C0        -119.2998   196.7483   -67.3941 C0            1 RES     
    3313 C0        -118.1537   196.6182   -68.4442 C0            1 RES     
    3314 C0        -116.9306   195.7176   -68.1963 C0            1 RES     
    3315 C0        -115.7781   196.3892   -67.4136 C0            1 RES     
    3316 C0        -114.4472   195.6566   -67.7198 C0            1 RES     
    3317 C0        -113.2181   196.2974   -67.0476 C0            1 RES     
    3318 C0        -111.9464   195.4801   -67.3224 C0            1 RES     
    3319 C0        -110.7691   195.9792   -66.4842 C0            1 RES     
    3320 H4        -121.6721   195.2935   -66.4797 H4            1 RES     
    3321 H5        -121.0726   193.5098   -67.1654 H5            1 RES     
    3322 H4        -123.8965   197.1837   -70.0656 H4            1 RES     
    3323 H6        -122.1071   198.9188   -65.9049 H6            1 RES     
    3324 H6        -122.9448   199.7781   -67.2775 H6            1 RES     
    3325 H6        -124.0575   198.8623   -64.5639 H6            1 RES     
    3326 H6        -125.3152   200.8090   -66.5989 H6            1 RES     
    3327 H6        -125.6555   199.0748   -66.3714 H6            1 RES     
    3328 H6        -126.1738   199.5575   -63.8636 H6            1 RES     
    3329 H6        -126.2464   201.2944   -64.3626 H6            1 RES     
    3330 H6        -127.8726   200.5011   -66.1779 H6            1 RES     
    3331 H6        -127.7959   198.8559   -65.4820 H6            1 RES     
    3332 H6        -128.8756   201.4474   -64.2397 H6            1 RES     
    3333 H6        -128.7492   199.9073   -63.2970 H6            1 RES     
    3334 H6        -130.2673   200.0357   -65.9776 H6            1 RES     
    3335 H6        -130.2783   198.7295   -64.7800 H6            1 RES     
    3336 H6        -131.4545   200.3401   -63.1815 H6            1 RES     
    3337 H6        -131.3573   201.6164   -64.4688 H6            1 RES     
    3338 H6        -132.3434   200.1388   -64.7488 H6            1 RES     
    3339 H6        -122.6647   200.3078   -63.7111 H6            1 RES     
    3340 H6        -122.1407   200.9517   -65.2212 H6            1 RES     
    3341 H6        -124.3907   202.3105   -63.6071 H6            1 RES     
    3342 H6        -122.6471   202.5254   -63.5830 H6            1 RES     
    3343 H6        -122.6711   202.8754   -66.1347 H6            1 RES     
    3344 H6        -124.4088   203.2662   -65.9802 H6            1 RES     
    3345 H6        -123.6589   205.1649   -64.3081 H6            1 RES     
    3346 H6        -122.0172   204.4812   -64.3884 H6            1 RES     
    3347 H6        -122.0346   204.8686   -66.9326 H6            1 RES     
    3348 H6        -123.4684   205.9064   -66.6745 H6            1 RES     
    3349 H6        -121.2012   207.0656   -66.8475 H6            1 RES     
    3350 H6        -120.6006   206.1780   -65.4643 H6            1 RES     
    3351 H6        -122.1112   207.2780   -63.9013 H6            1 RES     
    3352 H6        -122.9163   208.1675   -65.2389 H6            1 RES     
    3353 H6        -120.7449   209.2680   -65.8496 H6            1 RES     
    3354 H6        -119.9136   208.3846   -64.5185 H6            1 RES     
    3355 H6        -121.1906   209.6041   -64.1380 H6            1 RES     
    3356 H6        -121.8836   196.4226   -68.5287 H6            1 RES     
    3357 H6        -122.1780   198.1341   -68.8695 H6            1 RES     
    3358 H6        -120.0928   197.9155   -69.0021 H6            1 RES     
    3359 H6        -120.1843   199.2299   -66.2512 H6            1 RES     
    3360 H6        -120.7728   199.9494   -67.8327 H6            1 RES     
    3361 H6        -117.9303   199.1872   -66.9934 H6            1 RES     
    3362 H6        -118.4194   199.7763   -68.6352 H6            1 RES     
    3363 H6        -117.4993   201.5504   -67.2653 H6            1 RES     
    3364 H6        -119.2407   201.8903   -67.6915 H6            1 RES     
    3365 H6        -118.3910   200.7758   -65.0548 H6            1 RES     
    3366 H6        -119.9831   201.4138   -65.4385 H6            1 RES     
    3367 H6        -117.3104   202.9920   -65.3506 H6            1 RES     
    3368 H6        -118.5365   202.9388   -64.0337 H6            1 RES     
    3369 H6        -118.7361   204.9925   -65.2886 H6            1 RES     
    3370 H6        -120.2129   203.9429   -65.4512 H6            1 RES     
    3371 H6        -119.0922   204.1230   -66.8082 H6            1 RES     
    3372 H6        -118.9479   197.0019   -66.3719 H6            1 RES     
    3373 H6        -119.7561   195.7414   -67.3552 H6            1 RES     
    3374 H6        -118.6567   196.1980   -69.3447 H6            1 RES     
    3375 H6        -117.7594   197.6062   -68.7431 H6            1 RES     
    3376 H6        -116.5256   195.5566   -69.2198 H6            1 RES     
    3377 H6        -117.2025   194.7169   -67.7946 H6            1 RES     
    3378 H6        -116.0141   196.4118   -66.3273 H6            1 RES     
    3379 H6        -115.6500   197.4354   -67.7658 H6            1 RES     
    3380 H6        -114.2661   195.6711   -68.8165 H6            1 RES     
    3381 H6        -114.5429   194.5952   -67.4111 H6            1 RES     
    3382 H6        -113.3630   196.3284   -65.9658 H6            1 RES     
    3383 H6        -113.0819   197.3455   -67.3905 H6            1 RES     
    3384 H6        -111.6939   195.5350   -68.4026 H6            1 RES     
    3385 H6        -112.1173   194.4147   -67.0545 H6            1 RES     
    3386 H6        -110.9993   195.8780   -65.4005 H6            1 RES     
    3387 H6        -110.5464   197.0426   -66.7083 H6            1 RES     
    3388 H6        -109.8692   195.3659   -66.7025 H6            1 RES     
    3389 C0        -127.7155   204.9082   -69.2002 C0            1 RES     
    3390 C1        -129.0450   204.5084   -69.8052 C1            1 RES     
    3391 C1        -130.0883   204.4083   -68.7942 C1            1 RES     
    3392 C1        -129.3004   203.7996   -67.6309 C1            1 RES     
    3393 C1        -127.7752   203.9916   -67.9483 C1            1 RES     
    3394 C1        -127.2861   202.6831   -68.3643 C1            1 RES     
    3395 C1        -128.1362   201.6745   -68.3754 C1            1 RES     
    3396 S2        -129.6527   202.0270   -67.5267 S2            1 RES     
    3397 C1        -127.7680   200.3397   -68.8963 C1            1 RES     
    3398 C1        -126.4806   200.1491   -69.4248 C1            1 RES     
    3399 N3        -126.0387   198.9267   -69.7110 N3            1 RES     
    3400 C1        -126.7749   197.8046   -69.5610 C1            1 RES     
    3401 C1        -128.1254   197.9325   -69.1992 C1            1 RES     
    3402 C1        -128.6244   199.2180   -68.8545 C1            1 RES     
    3403 N3        -129.9175   199.2438   -68.4392 N3            1 RES     
    3404 S2        -130.3625   197.6561   -68.5290 S2            1 RES     
    3405 N3        -128.9935   196.8972   -69.0519 N3            1 RES     
    3406 S2        -131.4252   203.3782   -69.5341 S2            1 RES     
    3407 C1        -130.8276   203.7722   -71.2132 C1            1 RES     
    3408 C1        -129.3598   204.0422   -71.0229 C1            1 RES     
    3409 C0        -127.6159   206.3883   -68.7053 C0            1 RES     
    3410 C0        -128.5392   207.1618   -67.7145 C0            1 RES     
    3411 C0        -129.8532   207.6103   -68.3782 C0            1 RES     
    3412 C0        -130.9686   207.8665   -67.3415 C0            1 RES     
    3413 C0        -132.3384   207.6750   -67.9943 C0            1 RES     
    3414 C0        -133.5065   207.9431   -67.0447 C0            1 RES     
    3415 C0        -134.8216   207.5258   -67.7185 C0            1 RES     
    3416 C0        -136.0395   208.0110   -66.9470 C0            1 RES     
    3417 C0        -127.6490   208.3061   -67.0984 C0            1 RES     
    3418 C0        -128.1030   209.7449   -66.7583 C0            1 RES     
    3419 C0        -128.1488   210.6784   -68.0034 C0            1 RES     
    3420 C0        -127.6707   212.1177   -67.6726 C0            1 RES     
    3421 C0        -127.3143   212.9059   -68.9535 C0            1 RES     
    3422 C0        -126.2708   214.0187   -68.7251 C0            1 RES     
    3423 C0        -126.7192   215.1504   -67.7986 C0            1 RES     
    3424 C0        -125.6228   216.2149   -67.7090 C0            1 RES     
    3425 C0        -126.5577   204.6920   -70.3018 C0            1 RES     
    3426 C0        -125.0048   205.0472   -70.2781 C0            1 RES     
    3427 C0        -124.7031   206.4669   -69.7391 C0            1 RES     
    3428 C0        -123.3114   207.0278   -69.9823 C0            1 RES     
    3429 C0        -123.2031   208.4937   -69.5233 C0            1 RES     
    3430 C0        -123.4983   208.7447   -68.0468 C0            1 RES     
    3431 C0        -123.0432   210.1315   -67.5671 C0            1 RES     
    3432 C0        -123.8831   211.2695   -68.1176 C0            1 RES     
    3433 C0        -123.9612   203.9665   -69.7870 C0            1 RES     
    3434 C0        -122.8166   203.8589   -70.8486 C0            1 RES     
    3435 C0        -121.5863   202.9501   -70.6370 C0            1 RES     
    3436 C0        -120.4126   203.5995   -69.8636 C0            1 RES     
    3437 C0        -119.0872   202.8626   -70.1979 C0            1 RES     
    3438 C0        -117.8442   203.4839   -69.5269 C0            1 RES     
    3439 C0        -116.5784   202.6585   -69.8105 C0            1 RES     
    3440 C0        -115.3971   203.1364   -68.9631 C0            1 RES     
    3441 H4        -126.2821   202.6476   -68.7052 H4            1 RES     
    3442 H5        -125.7530   200.9213   -69.5556 H5            1 RES     
    3443 H4        -128.6634   203.9686   -71.8442 H4            1 RES     
    3444 H6        -126.6983   206.3037   -68.1168 H6            1 RES     
    3445 H6        -127.4943   207.0578   -69.5816 H6            1 RES     
    3446 H6        -128.7895   206.4594   -66.8892 H6            1 RES     
    3447 H6        -129.7228   208.4434   -69.0988 H6            1 RES     
    3448 H6        -130.1976   206.7777   -68.9933 H6            1 RES     
    3449 H6        -130.9190   207.1037   -66.5328 H6            1 RES     
    3450 H6        -130.8586   208.8714   -66.8904 H6            1 RES     
    3451 H6        -132.4260   208.3617   -68.8503 H6            1 RES     
    3452 H6        -132.4021   206.6230   -68.3574 H6            1 RES     
    3453 H6        -133.5097   209.0293   -66.8082 H6            1 RES     
    3454 H6        -133.3966   207.3663   -66.1002 H6            1 RES     
    3455 H6        -134.8499   206.4178   -67.8215 H6            1 RES     
    3456 H6        -134.8828   207.9587   -68.7285 H6            1 RES     
    3457 H6        -136.0452   207.5998   -65.9174 H6            1 RES     
    3458 H6        -136.0343   209.1218   -66.9060 H6            1 RES     
    3459 H6        -136.9605   207.6863   -67.4770 H6            1 RES     
    3460 H6        -127.1789   207.8590   -66.1937 H6            1 RES     
    3461 H6        -126.7800   208.4784   -67.7669 H6            1 RES     
    3462 H6        -128.9793   209.8289   -66.0876 H6            1 RES     
    3463 H6        -127.2403   210.1026   -66.1527 H6            1 RES     
    3464 H6        -127.3947   210.2989   -68.7259 H6            1 RES     
    3465 H6        -129.1310   210.6517   -68.5193 H6            1 RES     
    3466 H6        -128.3833   212.6721   -67.0264 H6            1 RES     
    3467 H6        -126.7325   212.0216   -67.0953 H6            1 RES     
    3468 H6        -126.8040   212.2209   -69.6643 H6            1 RES     
    3469 H6        -128.2357   213.2799   -69.4489 H6            1 RES     
    3470 H6        -125.9856   214.4341   -69.7139 H6            1 RES     
    3471 H6        -125.3482   213.5707   -68.3078 H6            1 RES     
    3472 H6        -126.9164   214.7472   -66.7829 H6            1 RES     
    3473 H6        -127.6471   215.6198   -68.1857 H6            1 RES     
    3474 H6        -125.4236   216.6496   -68.7128 H6            1 RES     
    3475 H6        -124.6797   215.7720   -67.3205 H6            1 RES     
    3476 H6        -125.9390   217.0310   -67.0275 H6            1 RES     
    3477 H6        -126.6320   203.6671   -70.7275 H6            1 RES     
    3478 H6        -126.9265   205.3606   -71.1145 H6            1 RES     
    3479 H6        -124.8341   205.0983   -71.3786 H6            1 RES     
    3480 H6        -124.7919   206.4489   -68.6443 H6            1 RES     
    3481 H6        -125.4132   207.1729   -70.2149 H6            1 RES     
    3482 H6        -122.5574   206.4165   -69.4389 H6            1 RES     
    3483 H6        -123.0918   207.0028   -71.0702 H6            1 RES     
    3484 H6        -122.1555   208.7937   -69.7228 H6            1 RES     
    3485 H6        -123.9127   209.1107   -70.0976 H6            1 RES     
    3486 H6        -122.9290   208.0145   -67.4931 H6            1 RES     
    3487 H6        -124.5652   208.5817   -67.8069 H6            1 RES     
    3488 H6        -121.9734   210.2875   -67.8266 H6            1 RES     
    3489 H6        -123.1393   210.1714   -66.4620 H6            1 RES     
    3490 H6        -123.5070   212.2291   -67.7042 H6            1 RES     
    3491 H6        -124.9282   211.1138   -67.8112 H6            1 RES     
    3492 H6        -123.8589   211.3336   -69.2139 H6            1 RES     
    3493 H6        -123.6082   204.1969   -68.7599 H6            1 RES     
    3494 H6        -124.4122   202.9560   -69.7734 H6            1 RES     
    3495 H6        -123.3264   203.4553   -71.7528 H6            1 RES     
    3496 H6        -122.4248   204.8486   -71.1376 H6            1 RES     
    3497 H6        -121.1967   202.8064   -71.6692 H6            1 RES     
    3498 H6        -121.8536   201.9420   -70.2508 H6            1 RES     
    3499 H6        -120.6317   203.6060   -68.7739 H6            1 RES     
    3500 H6        -120.2829   204.6499   -70.2016 H6            1 RES     
    3501 H6        -118.9172   202.8918   -71.2959 H6            1 RES     
    3502 H6        -119.1866   201.7967   -69.9060 H6            1 RES     
    3503 H6        -117.9809   203.5057   -68.4447 H6            1 RES     
    3504 H6        -117.6995   204.5344   -69.8576 H6            1 RES     
    3505 H6        -116.3234   202.7233   -70.8892 H6            1 RES     
    3506 H6        -116.7580   201.5916   -69.5555 H6            1 RES     
    3507 H6        -115.6290   203.0249   -67.8807 H6            1 RES     
    3508 H6        -115.1633   204.2003   -69.1727 H6            1 RES     
    3509 H6        -114.5019   202.5175   -69.1856 H6            1 RES     
    3510 C0        -132.3629   212.4686   -72.0307 C0            1 RES     
    3511 C1        -133.6892   212.4204   -72.7492 C1            1 RES     
    3512 C1        -134.6276   211.8256   -72.0786 C1            1 RES     
    3513 C1        -134.1818   211.2905   -70.7923 C1            1 RES     
    3514 C1        -132.6410   211.4589   -70.8686 C1            1 RES     
    3515 C1        -132.1024   210.1248   -71.1696 C1            1 RES     
    3516 C1        -132.9514   209.1066   -71.2478 C1            1 RES     
    3517 S2        -134.6275   209.5403   -70.8383 S2            1 RES     
    3518 C1        -132.5129   207.7053   -71.4807 C1            1 RES     
    3519 C1        -131.1458   207.4332   -71.6875 C1            1 RES     
    3520 N3        -130.6926   206.1727   -71.6839 N3            1 RES     
    3521 C1        -131.4845   205.0881   -71.5268 C1            1 RES     
    3522 C1        -132.8706   205.2776   -71.4592 C1            1 RES     
    3523 C1        -133.3874   206.5975   -71.4293 C1            1 RES     
    3524 N3        -134.7350   206.6727   -71.2808 N3            1 RES     
    3525 S2        -135.1985   205.0968   -71.2032 S2            1 RES     
    3526 N3        -133.7752   204.2731   -71.3227 N3            1 RES     
    3527 S2        -136.2653   211.8123   -72.7999 S2            1 RES     
    3528 C1        -135.5182   212.7126   -74.1659 C1            1 RES     
    3529 C1        -134.1694   212.9851   -74.0033 C1            1 RES     
    3530 C0        -132.0732   213.8574   -71.3963 C0            1 RES     
    3531 C0        -133.0549   214.6643   -70.4798 C0            1 RES     
    3532 C0        -134.2393   215.2240   -71.3009 C0            1 RES     
    3533 C0        -135.4877   215.5746   -70.4745 C0            1 RES     
    3534 C0        -136.6895   215.7343   -71.4253 C0            1 RES     
    3535 C0        -138.0221   215.8275   -70.6815 C0            1 RES     
    3536 C0        -139.1812   215.8365   -71.6887 C0            1 RES     
    3537 C0        -140.5323   215.8642   -70.9857 C0            1 RES     
    3538 C0        -132.1514   215.7369   -69.7715 C0            1 RES     
    3539 C0        -132.6073   217.1644   -69.4144 C0            1 RES     
    3540 C0        -132.8006   218.0479   -70.6741 C0            1 RES     
    3541 C0        -132.2657   219.4758   -70.4814 C0            1 RES     
    3542 C0        -132.3763   220.2824   -71.7893 C0            1 RES     
    3543 C0        -131.4791   221.5309   -71.8125 C0            1 RES     
    3544 C0        -131.7724   222.5421   -70.7005 C0            1 RES     
    3545 C0        -130.8327   223.7420   -70.8146 C0            1 RES     
    3546 C0        -131.2284   212.1057   -73.1088 C0            1 RES     
    3547 C0        -129.6532   212.3632   -73.1023 C0            1 RES     
    3548 C0        -129.2915   213.8400   -72.7592 C0            1 RES     
    3549 C0        -127.8498   214.3038   -72.9838 C0            1 RES     
    3550 C0        -127.6485   215.8071   -72.6892 C0            1 RES     
    3551 C0        -128.0790   216.2166   -71.2687 C0            1 RES     
    3552 C0        -127.6175   217.6200   -70.8559 C0            1 RES     
    3553 C0        -128.2318   218.7295   -71.7027 C0            1 RES     
    3554 C0        -128.6756   211.3090   -72.4479 C0            1 RES     
    3555 C0        -127.4801   211.0663   -73.4317 C0            1 RES     
    3556 C0        -126.2788   210.1590   -73.0892 C0            1 RES     
    3557 C0        -125.1175   210.8444   -72.3231 C0            1 RES     
    3558 C0        -123.7866   210.1003   -72.6184 C0            1 RES     
    3559 C0        -122.5461   210.7295   -71.9505 C0            1 RES     
    3560 C0        -121.2829   209.8992   -72.2416 C0            1 RES     
    3561 C0        -120.0881   210.3753   -71.4137 C0            1 RES     
    3562 H4        -131.0443   210.0517   -71.2869 H4            1 RES     
    3563 H5        -130.3898   208.1889   -71.7582 H5            1 RES     
    3564 H4        -133.5713   213.5411   -74.7087 H4            1 RES     
    3565 H6        -131.2142   213.6269   -70.7347 H6            1 RES     
    3566 H6        -131.7962   214.5591   -72.2070 H6            1 RES     
    3567 H6        -133.4659   213.9837   -69.7010 H6            1 RES     
    3568 H6        -133.9319   216.0124   -72.0142 H6            1 RES     
    3569 H6        -134.6063   214.4179   -71.9141 H6            1 RES     
    3570 H6        -135.7057   214.7127   -69.8043 H6            1 RES     
    3571 H6        -135.3440   216.4774   -69.8501 H6            1 RES     
    3572 H6        -136.5395   216.6197   -72.0804 H6            1 RES     
    3573 H6        -136.7535   214.8289   -72.0705 H6            1 RES     
    3574 H6        -138.0425   216.7432   -70.0529 H6            1 RES     
    3575 H6        -138.1318   214.9350   -70.0253 H6            1 RES     
    3576 H6        -139.0940   216.7229   -72.3535 H6            1 RES     
    3577 H6        -139.1363   214.9178   -72.3163 H6            1 RES     
    3578 H6        -140.6475   214.9668   -70.3405 H6            1 RES     
    3579 H6        -140.6241   216.7795   -70.3650 H6            1 RES     
    3580 H6        -141.3428   215.8600   -71.7450 H6            1 RES     
    3581 H6        -131.7200   215.2477   -68.8697 H6            1 RES     
    3582 H6        -131.2686   215.9345   -70.4146 H6            1 RES     
    3583 H6        -133.4561   217.2256   -68.7038 H6            1 RES     
    3584 H6        -131.7224   217.5666   -68.8701 H6            1 RES     
    3585 H6        -132.1829   217.6353   -71.5033 H6            1 RES     
    3586 H6        -133.8607   218.0424   -70.9997 H6            1 RES     
    3587 H6        -132.7904   219.9974   -69.6531 H6            1 RES     
    3588 H6        -131.1884   219.3858   -70.2192 H6            1 RES     
    3589 H6        -132.0228   219.6548   -72.6376 H6            1 RES     
    3590 H6        -133.4402   220.5436   -71.9774 H6            1 RES     
    3591 H6        -131.6083   222.0274   -72.7997 H6            1 RES     
    3592 H6        -130.4182   221.2040   -71.7312 H6            1 RES     
    3593 H6        -131.6144   222.0703   -69.7076 H6            1 RES     
    3594 H6        -132.8245   222.8902   -70.7747 H6            1 RES     
    3595 H6        -130.9758   224.2547   -71.7899 H6            1 RES     
    3596 H6        -129.7739   223.4124   -70.7332 H6            1 RES     
    3597 H6        -131.0418   224.4633   -69.9977 H6            1 RES     
    3598 H6        -131.4116   211.0818   -73.5026 H6            1 RES     
    3599 H6        -131.5128   212.7744   -73.9500 H6            1 RES     
    3600 H6        -129.4620   212.2553   -74.1949 H6            1 RES     
    3601 H6        -129.4610   213.9886   -71.6875 H6            1 RES     
    3602 H6        -129.9391   214.5053   -73.3677 H6            1 RES     
    3603 H6        -127.1759   213.7238   -72.3153 H6            1 RES     
    3604 H6        -127.5658   214.1364   -74.0436 H6            1 RES     
    3605 H6        -126.5647   216.0160   -72.8178 H6            1 RES     
    3606 H6        -128.2159   216.4119   -73.4278 H6            1 RES     
    3607 H6        -127.6385   215.5095   -70.5558 H6            1 RES     
    3608 H6        -129.1786   216.1529   -71.1689 H6            1 RES     
    3609 H6        -126.5089   217.6781   -70.9110 H6            1 RES     
    3610 H6        -127.9180   217.7854   -69.7976 H6            1 RES     
    3611 H6        -127.8842   219.7132   -71.3222 H6            1 RES     
    3612 H6        -129.3388   218.6913   -71.6382 H6            1 RES     
    3613 H6        -127.9197   218.6362   -72.7624 H6            1 RES     
    3614 H6        -128.3753   211.6308   -71.4300 H6            1 RES     
    3615 H6        -129.1637   210.3185   -72.3664 H6            1 RES     
    3616 H6        -127.9573   210.5917   -74.3189 H6            1 RES     
    3617 H6        -127.0444   212.0071   -73.7984 H6            1 RES     
    3618 H6        -125.8558   209.9330   -74.0935 H6            1 RES     
    3619 H6        -126.5752   209.1842   -72.6446 H6            1 RES     
    3620 H6        -125.3496   210.8883   -71.2371 H6            1 RES     
    3621 H6        -124.9821   211.8820   -72.6963 H6            1 RES     
    3622 H6        -123.6043   210.1067   -73.7150 H6            1 RES     
    3623 H6        -123.8905   209.0407   -72.3070 H6            1 RES     
    3624 H6        -122.6846   210.7635   -70.8654 H6            1 RES     
    3625 H6        -122.3999   211.7760   -72.2933 H6            1 RES     
    3626 H6        -121.0394   209.9576   -73.3236 H6            1 RES     
    3627 H6        -121.4615   208.8332   -71.9828 H6            1 RES     
    3628 H6        -120.3044   210.2699   -70.3279 H6            1 RES     
    3629 H6        -119.8509   211.4362   -71.6334 H6            1 RES     
    3630 H6        -119.1999   209.7498   -71.6472 H6            1 RES     
    3631 H5           2.4541    -5.1668     0.1494 H5            1 RES     
    3632 H5        -136.0881   213.0264   -75.0275 H5            1 RES     
@<TRIPOS>BOND
       1        1        2 1
       2        1       21 1
       3        1       37 1
       4        1        5 1
       5        2        3 1
       6        2       20 1
       7        3        4 1
       8        3       18 1
       9        4        5 1
      10        4        8 1
      11        5        6 1
      12        6        7 1
      13        6       53 1
      14        7        8 1
      15        7        9 1
      16        9       10 1
      17        9       14 1
      18       10       11 1
      19       10       54 1
      20       11       12 1
      21       12       13 1
      22       12     3631 1
      23       13       14 1
      24       13       17 1
      25       14       15 1
      26       15       16 1
      27       16       17 1
      28       18       19 1
      29       19       20 1
      30       19      133 1
      31       20       55 1
      32       21       22 1
      33       21       56 1
      34       21       57 1
      35       22       23 1
      36       22       29 1
      37       22       58 1
      38       23       24 1
      39       23       59 1
      40       23       60 1
      41       24       25 1
      42       24       61 1
      43       24       62 1
      44       25       26 1
      45       25       63 1
      46       25       64 1
      47       26       27 1
      48       26       65 1
      49       26       66 1
      50       27       28 1
      51       27       67 1
      52       27       68 1
      53       28       69 1
      54       28       70 1
      55       28       71 1
      56       29       30 1
      57       29       72 1
      58       29       73 1
      59       30       31 1
      60       30       74 1
      61       30       75 1
      62       31       32 1
      63       31       76 1
      64       31       77 1
      65       32       33 1
      66       32       78 1
      67       32       79 1
      68       33       34 1
      69       33       80 1
      70       33       81 1
      71       34       35 1
      72       34       82 1
      73       34       83 1
      74       35       36 1
      75       35       84 1
      76       35       85 1
      77       36       86 1
      78       36       87 1
      79       36       88 1
      80       37       38 1
      81       37       89 1
      82       37       90 1
      83       38       39 1
      84       38       45 1
      85       38       91 1
      86       39       40 1
      87       39       92 1
      88       39       93 1
      89       40       41 1
      90       40       94 1
      91       40       95 1
      92       41       42 1
      93       41       96 1
      94       41       97 1
      95       42       43 1
      96       42       98 1
      97       42       99 1
      98       43       44 1
      99       43      100 1
     100       43      101 1
     101       44      102 1
     102       44      103 1
     103       44      104 1
     104       45       46 1
     105       45      105 1
     106       45      106 1
     107       46       47 1
     108       46      107 1
     109       46      108 1
     110       47       48 1
     111       47      109 1
     112       47      110 1
     113       48       49 1
     114       48      111 1
     115       48      112 1
     116       49       50 1
     117       49      113 1
     118       49      114 1
     119       50       51 1
     120       50      115 1
     121       50      116 1
     122       51       52 1
     123       51      117 1
     124       51      118 1
     125       52      119 1
     126       52      120 1
     127       52      121 1
     128      122      123 1
     129      122      142 1
     130      122      158 1
     131      122      126 1
     132      123      124 1
     133      123      141 1
     134      124      125 1
     135      124      139 1
     136      125      126 1
     137      125      129 1
     138      126      127 1
     139      127      128 1
     140      127      174 1
     141      128      129 1
     142      128      130 1
     143      130      131 1
     144      130      135 1
     145      131      132 1
     146      131      175 1
     147      132      133 1
     148      133      134 1
     149      134      135 1
     150      134      138 1
     151      135      136 1
     152      136      137 1
     153      137      138 1
     154      139      140 1
     155      140      141 1
     156      140      254 1
     157      141      176 1
     158      142      143 1
     159      142      177 1
     160      142      178 1
     161      143      144 1
     162      143      150 1
     163      143      179 1
     164      144      145 1
     165      144      180 1
     166      144      181 1
     167      145      146 1
     168      145      182 1
     169      145      183 1
     170      146      147 1
     171      146      184 1
     172      146      185 1
     173      147      148 1
     174      147      186 1
     175      147      187 1
     176      148      149 1
     177      148      188 1
     178      148      189 1
     179      149      190 1
     180      149      191 1
     181      149      192 1
     182      150      151 1
     183      150      193 1
     184      150      194 1
     185      151      152 1
     186      151      195 1
     187      151      196 1
     188      152      153 1
     189      152      197 1
     190      152      198 1
     191      153      154 1
     192      153      199 1
     193      153      200 1
     194      154      155 1
     195      154      201 1
     196      154      202 1
     197      155      156 1
     198      155      203 1
     199      155      204 1
     200      156      157 1
     201      156      205 1
     202      156      206 1
     203      157      207 1
     204      157      208 1
     205      157      209 1
     206      158      159 1
     207      158      210 1
     208      158      211 1
     209      159      160 1
     210      159      166 1
     211      159      212 1
     212      160      161 1
     213      160      213 1
     214      160      214 1
     215      161      162 1
     216      161      215 1
     217      161      216 1
     218      162      163 1
     219      162      217 1
     220      162      218 1
     221      163      164 1
     222      163      219 1
     223      163      220 1
     224      164      165 1
     225      164      221 1
     226      164      222 1
     227      165      223 1
     228      165      224 1
     229      165      225 1
     230      166      167 1
     231      166      226 1
     232      166      227 1
     233      167      168 1
     234      167      228 1
     235      167      229 1
     236      168      169 1
     237      168      230 1
     238      168      231 1
     239      169      170 1
     240      169      232 1
     241      169      233 1
     242      170      171 1
     243      170      234 1
     244      170      235 1
     245      171      172 1
     246      171      236 1
     247      171      237 1
     248      172      173 1
     249      172      238 1
     250      172      239 1
     251      173      240 1
     252      173      241 1
     253      173      242 1
     254      243      244 1
     255      243      263 1
     256      243      279 1
     257      243      247 1
     258      244      245 1
     259      244      262 1
     260      245      246 1
     261      245      260 1
     262      246      247 1
     263      246      250 1
     264      247      248 1
     265      248      249 1
     266      248      295 1
     267      249      250 1
     268      249      251 1
     269      251      252 1
     270      251      256 1
     271      252      253 1
     272      252      296 1
     273      253      254 1
     274      254      255 1
     275      255      256 1
     276      255      259 1
     277      256      257 1
     278      257      258 1
     279      258      259 1
     280      260      261 1
     281      261      262 1
     282      261      375 1
     283      262      297 1
     284      263      264 1
     285      263      298 1
     286      263      299 1
     287      264      265 1
     288      264      271 1
     289      264      300 1
     290      265      266 1
     291      265      301 1
     292      265      302 1
     293      266      267 1
     294      266      303 1
     295      266      304 1
     296      267      268 1
     297      267      305 1
     298      267      306 1
     299      268      269 1
     300      268      307 1
     301      268      308 1
     302      269      270 1
     303      269      309 1
     304      269      310 1
     305      270      311 1
     306      270      312 1
     307      270      313 1
     308      271      272 1
     309      271      314 1
     310      271      315 1
     311      272      273 1
     312      272      316 1
     313      272      317 1
     314      273      274 1
     315      273      318 1
     316      273      319 1
     317      274      275 1
     318      274      320 1
     319      274      321 1
     320      275      276 1
     321      275      322 1
     322      275      323 1
     323      276      277 1
     324      276      324 1
     325      276      325 1
     326      277      278 1
     327      277      326 1
     328      277      327 1
     329      278      328 1
     330      278      329 1
     331      278      330 1
     332      279      280 1
     333      279      331 1
     334      279      332 1
     335      280      281 1
     336      280      287 1
     337      280      333 1
     338      281      282 1
     339      281      334 1
     340      281      335 1
     341      282      283 1
     342      282      336 1
     343      282      337 1
     344      283      284 1
     345      283      338 1
     346      283      339 1
     347      284      285 1
     348      284      340 1
     349      284      341 1
     350      285      286 1
     351      285      342 1
     352      285      343 1
     353      286      344 1
     354      286      345 1
     355      286      346 1
     356      287      288 1
     357      287      347 1
     358      287      348 1
     359      288      289 1
     360      288      349 1
     361      288      350 1
     362      289      290 1
     363      289      351 1
     364      289      352 1
     365      290      291 1
     366      290      353 1
     367      290      354 1
     368      291      292 1
     369      291      355 1
     370      291      356 1
     371      292      293 1
     372      292      357 1
     373      292      358 1
     374      293      294 1
     375      293      359 1
     376      293      360 1
     377      294      361 1
     378      294      362 1
     379      294      363 1
     380      364      365 1
     381      364      384 1
     382      364      400 1
     383      364      368 1
     384      365      366 1
     385      365      383 1
     386      366      367 1
     387      366      381 1
     388      367      368 1
     389      367      371 1
     390      368      369 1
     391      369      370 1
     392      369      416 1
     393      370      371 1
     394      370      372 1
     395      372      373 1
     396      372      377 1
     397      373      374 1
     398      373      417 1
     399      374      375 1
     400      375      376 1
     401      376      377 1
     402      376      380 1
     403      377      378 1
     404      378      379 1
     405      379      380 1
     406      381      382 1
     407      382      383 1
     408      382      496 1
     409      383      418 1
     410      384      385 1
     411      384      419 1
     412      384      420 1
     413      385      386 1
     414      385      392 1
     415      385      421 1
     416      386      387 1
     417      386      422 1
     418      386      423 1
     419      387      388 1
     420      387      424 1
     421      387      425 1
     422      388      389 1
     423      388      426 1
     424      388      427 1
     425      389      390 1
     426      389      428 1
     427      389      429 1
     428      390      391 1
     429      390      430 1
     430      390      431 1
     431      391      432 1
     432      391      433 1
     433      391      434 1
     434      392      393 1
     435      392      435 1
     436      392      436 1
     437      393      394 1
     438      393      437 1
     439      393      438 1
     440      394      395 1
     441      394      439 1
     442      394      440 1
     443      395      396 1
     444      395      441 1
     445      395      442 1
     446      396      397 1
     447      396      443 1
     448      396      444 1
     449      397      398 1
     450      397      445 1
     451      397      446 1
     452      398      399 1
     453      398      447 1
     454      398      448 1
     455      399      449 1
     456      399      450 1
     457      399      451 1
     458      400      401 1
     459      400      452 1
     460      400      453 1
     461      401      402 1
     462      401      408 1
     463      401      454 1
     464      402      403 1
     465      402      455 1
     466      402      456 1
     467      403      404 1
     468      403      457 1
     469      403      458 1
     470      404      405 1
     471      404      459 1
     472      404      460 1
     473      405      406 1
     474      405      461 1
     475      405      462 1
     476      406      407 1
     477      406      463 1
     478      406      464 1
     479      407      465 1
     480      407      466 1
     481      407      467 1
     482      408      409 1
     483      408      468 1
     484      408      469 1
     485      409      410 1
     486      409      470 1
     487      409      471 1
     488      410      411 1
     489      410      472 1
     490      410      473 1
     491      411      412 1
     492      411      474 1
     493      411      475 1
     494      412      413 1
     495      412      476 1
     496      412      477 1
     497      413      414 1
     498      413      478 1
     499      413      479 1
     500      414      415 1
     501      414      480 1
     502      414      481 1
     503      415      482 1
     504      415      483 1
     505      415      484 1
     506      485      486 1
     507      485      505 1
     508      485      521 1
     509      485      489 1
     510      486      487 1
     511      486      504 1
     512      487      488 1
     513      487      502 1
     514      488      489 1
     515      488      492 1
     516      489      490 1
     517      490      491 1
     518      490      537 1
     519      491      492 1
     520      491      493 1
     521      493      494 1
     522      493      498 1
     523      494      495 1
     524      494      538 1
     525      495      496 1
     526      496      497 1
     527      497      498 1
     528      497      501 1
     529      498      499 1
     530      499      500 1
     531      500      501 1
     532      502      503 1
     533      503      504 1
     534      503      617 1
     535      504      539 1
     536      505      506 1
     537      505      540 1
     538      505      541 1
     539      506      507 1
     540      506      513 1
     541      506      542 1
     542      507      508 1
     543      507      543 1
     544      507      544 1
     545      508      509 1
     546      508      545 1
     547      508      546 1
     548      509      510 1
     549      509      547 1
     550      509      548 1
     551      510      511 1
     552      510      549 1
     553      510      550 1
     554      511      512 1
     555      511      551 1
     556      511      552 1
     557      512      553 1
     558      512      554 1
     559      512      555 1
     560      513      514 1
     561      513      556 1
     562      513      557 1
     563      514      515 1
     564      514      558 1
     565      514      559 1
     566      515      516 1
     567      515      560 1
     568      515      561 1
     569      516      517 1
     570      516      562 1
     571      516      563 1
     572      517      518 1
     573      517      564 1
     574      517      565 1
     575      518      519 1
     576      518      566 1
     577      518      567 1
     578      519      520 1
     579      519      568 1
     580      519      569 1
     581      520      570 1
     582      520      571 1
     583      520      572 1
     584      521      522 1
     585      521      573 1
     586      521      574 1
     587      522      523 1
     588      522      529 1
     589      522      575 1
     590      523      524 1
     591      523      576 1
     592      523      577 1
     593      524      525 1
     594      524      578 1
     595      524      579 1
     596      525      526 1
     597      525      580 1
     598      525      581 1
     599      526      527 1
     600      526      582 1
     601      526      583 1
     602      527      528 1
     603      527      584 1
     604      527      585 1
     605      528      586 1
     606      528      587 1
     607      528      588 1
     608      529      530 1
     609      529      589 1
     610      529      590 1
     611      530      531 1
     612      530      591 1
     613      530      592 1
     614      531      532 1
     615      531      593 1
     616      531      594 1
     617      532      533 1
     618      532      595 1
     619      532      596 1
     620      533      534 1
     621      533      597 1
     622      533      598 1
     623      534      535 1
     624      534      599 1
     625      534      600 1
     626      535      536 1
     627      535      601 1
     628      535      602 1
     629      536      603 1
     630      536      604 1
     631      536      605 1
     632      606      607 1
     633      606      626 1
     634      606      642 1
     635      606      610 1
     636      607      608 1
     637      607      625 1
     638      608      609 1
     639      608      623 1
     640      609      610 1
     641      609      613 1
     642      610      611 1
     643      611      612 1
     644      611      658 1
     645      612      613 1
     646      612      614 1
     647      614      615 1
     648      614      619 1
     649      615      616 1
     650      615      659 1
     651      616      617 1
     652      617      618 1
     653      618      619 1
     654      618      622 1
     655      619      620 1
     656      620      621 1
     657      621      622 1
     658      623      624 1
     659      624      625 1
     660      624      738 1
     661      625      660 1
     662      626      627 1
     663      626      661 1
     664      626      662 1
     665      627      628 1
     666      627      634 1
     667      627      663 1
     668      628      629 1
     669      628      664 1
     670      628      665 1
     671      629      630 1
     672      629      666 1
     673      629      667 1
     674      630      631 1
     675      630      668 1
     676      630      669 1
     677      631      632 1
     678      631      670 1
     679      631      671 1
     680      632      633 1
     681      632      672 1
     682      632      673 1
     683      633      674 1
     684      633      675 1
     685      633      676 1
     686      634      635 1
     687      634      677 1
     688      634      678 1
     689      635      636 1
     690      635      679 1
     691      635      680 1
     692      636      637 1
     693      636      681 1
     694      636      682 1
     695      637      638 1
     696      637      683 1
     697      637      684 1
     698      638      639 1
     699      638      685 1
     700      638      686 1
     701      639      640 1
     702      639      687 1
     703      639      688 1
     704      640      641 1
     705      640      689 1
     706      640      690 1
     707      641      691 1
     708      641      692 1
     709      641      693 1
     710      642      643 1
     711      642      694 1
     712      642      695 1
     713      643      644 1
     714      643      650 1
     715      643      696 1
     716      644      645 1
     717      644      697 1
     718      644      698 1
     719      645      646 1
     720      645      699 1
     721      645      700 1
     722      646      647 1
     723      646      701 1
     724      646      702 1
     725      647      648 1
     726      647      703 1
     727      647      704 1
     728      648      649 1
     729      648      705 1
     730      648      706 1
     731      649      707 1
     732      649      708 1
     733      649      709 1
     734      650      651 1
     735      650      710 1
     736      650      711 1
     737      651      652 1
     738      651      712 1
     739      651      713 1
     740      652      653 1
     741      652      714 1
     742      652      715 1
     743      653      654 1
     744      653      716 1
     745      653      717 1
     746      654      655 1
     747      654      718 1
     748      654      719 1
     749      655      656 1
     750      655      720 1
     751      655      721 1
     752      656      657 1
     753      656      722 1
     754      656      723 1
     755      657      724 1
     756      657      725 1
     757      657      726 1
     758      727      728 1
     759      727      747 1
     760      727      763 1
     761      727      731 1
     762      728      729 1
     763      728      746 1
     764      729      730 1
     765      729      744 1
     766      730      731 1
     767      730      734 1
     768      731      732 1
     769      732      733 1
     770      732      779 1
     771      733      734 1
     772      733      735 1
     773      735      736 1
     774      735      740 1
     775      736      737 1
     776      736      780 1
     777      737      738 1
     778      738      739 1
     779      739      740 1
     780      739      743 1
     781      740      741 1
     782      741      742 1
     783      742      743 1
     784      744      745 1
     785      745      746 1
     786      745      859 1
     787      746      781 1
     788      747      748 1
     789      747      782 1
     790      747      783 1
     791      748      749 1
     792      748      755 1
     793      748      784 1
     794      749      750 1
     795      749      785 1
     796      749      786 1
     797      750      751 1
     798      750      787 1
     799      750      788 1
     800      751      752 1
     801      751      789 1
     802      751      790 1
     803      752      753 1
     804      752      791 1
     805      752      792 1
     806      753      754 1
     807      753      793 1
     808      753      794 1
     809      754      795 1
     810      754      796 1
     811      754      797 1
     812      755      756 1
     813      755      798 1
     814      755      799 1
     815      756      757 1
     816      756      800 1
     817      756      801 1
     818      757      758 1
     819      757      802 1
     820      757      803 1
     821      758      759 1
     822      758      804 1
     823      758      805 1
     824      759      760 1
     825      759      806 1
     826      759      807 1
     827      760      761 1
     828      760      808 1
     829      760      809 1
     830      761      762 1
     831      761      810 1
     832      761      811 1
     833      762      812 1
     834      762      813 1
     835      762      814 1
     836      763      764 1
     837      763      815 1
     838      763      816 1
     839      764      765 1
     840      764      771 1
     841      764      817 1
     842      765      766 1
     843      765      818 1
     844      765      819 1
     845      766      767 1
     846      766      820 1
     847      766      821 1
     848      767      768 1
     849      767      822 1
     850      767      823 1
     851      768      769 1
     852      768      824 1
     853      768      825 1
     854      769      770 1
     855      769      826 1
     856      769      827 1
     857      770      828 1
     858      770      829 1
     859      770      830 1
     860      771      772 1
     861      771      831 1
     862      771      832 1
     863      772      773 1
     864      772      833 1
     865      772      834 1
     866      773      774 1
     867      773      835 1
     868      773      836 1
     869      774      775 1
     870      774      837 1
     871      774      838 1
     872      775      776 1
     873      775      839 1
     874      775      840 1
     875      776      777 1
     876      776      841 1
     877      776      842 1
     878      777      778 1
     879      777      843 1
     880      777      844 1
     881      778      845 1
     882      778      846 1
     883      778      847 1
     884      848      849 1
     885      848      868 1
     886      848      884 1
     887      848      852 1
     888      849      850 1
     889      849      867 1
     890      850      851 1
     891      850      865 1
     892      851      852 1
     893      851      855 1
     894      852      853 1
     895      853      854 1
     896      853      900 1
     897      854      855 1
     898      854      856 1
     899      856      857 1
     900      856      861 1
     901      857      858 1
     902      857      901 1
     903      858      859 1
     904      859      860 1
     905      860      861 1
     906      860      864 1
     907      861      862 1
     908      862      863 1
     909      863      864 1
     910      865      866 1
     911      866      867 1
     912      866      980 1
     913      867      902 1
     914      868      869 1
     915      868      903 1
     916      868      904 1
     917      869      870 1
     918      869      876 1
     919      869      905 1
     920      870      871 1
     921      870      906 1
     922      870      907 1
     923      871      872 1
     924      871      908 1
     925      871      909 1
     926      872      873 1
     927      872      910 1
     928      872      911 1
     929      873      874 1
     930      873      912 1
     931      873      913 1
     932      874      875 1
     933      874      914 1
     934      874      915 1
     935      875      916 1
     936      875      917 1
     937      875      918 1
     938      876      877 1
     939      876      919 1
     940      876      920 1
     941      877      878 1
     942      877      921 1
     943      877      922 1
     944      878      879 1
     945      878      923 1
     946      878      924 1
     947      879      880 1
     948      879      925 1
     949      879      926 1
     950      880      881 1
     951      880      927 1
     952      880      928 1
     953      881      882 1
     954      881      929 1
     955      881      930 1
     956      882      883 1
     957      882      931 1
     958      882      932 1
     959      883      933 1
     960      883      934 1
     961      883      935 1
     962      884      885 1
     963      884      936 1
     964      884      937 1
     965      885      886 1
     966      885      892 1
     967      885      938 1
     968      886      887 1
     969      886      939 1
     970      886      940 1
     971      887      888 1
     972      887      941 1
     973      887      942 1
     974      888      889 1
     975      888      943 1
     976      888      944 1
     977      889      890 1
     978      889      945 1
     979      889      946 1
     980      890      891 1
     981      890      947 1
     982      890      948 1
     983      891      949 1
     984      891      950 1
     985      891      951 1
     986      892      893 1
     987      892      952 1
     988      892      953 1
     989      893      894 1
     990      893      954 1
     991      893      955 1
     992      894      895 1
     993      894      956 1
     994      894      957 1
     995      895      896 1
     996      895      958 1
     997      895      959 1
     998      896      897 1
     999      896      960 1
    1000      896      961 1
    1001      897      898 1
    1002      897      962 1
    1003      897      963 1
    1004      898      899 1
    1005      898      964 1
    1006      898      965 1
    1007      899      966 1
    1008      899      967 1
    1009      899      968 1
    1010      969      970 1
    1011      969      989 1
    1012      969     1005 1
    1013      969      973 1
    1014      970      971 1
    1015      970      988 1
    1016      971      972 1
    1017      971      986 1
    1018      972      973 1
    1019      972      976 1
    1020      973      974 1
    1021      974      975 1
    1022      974     1021 1
    1023      975      976 1
    1024      975      977 1
    1025      977      978 1
    1026      977      982 1
    1027      978      979 1
    1028      978     1022 1
    1029      979      980 1
    1030      980      981 1
    1031      981      982 1
    1032      981      985 1
    1033      982      983 1
    1034      983      984 1
    1035      984      985 1
    1036      986      987 1
    1037      987      988 1
    1038      987     1101 1
    1039      988     1023 1
    1040      989      990 1
    1041      989     1024 1
    1042      989     1025 1
    1043      990      991 1
    1044      990      997 1
    1045      990     1026 1
    1046      991      992 1
    1047      991     1027 1
    1048      991     1028 1
    1049      992      993 1
    1050      992     1029 1
    1051      992     1030 1
    1052      993      994 1
    1053      993     1031 1
    1054      993     1032 1
    1055      994      995 1
    1056      994     1033 1
    1057      994     1034 1
    1058      995      996 1
    1059      995     1035 1
    1060      995     1036 1
    1061      996     1037 1
    1062      996     1038 1
    1063      996     1039 1
    1064      997      998 1
    1065      997     1040 1
    1066      997     1041 1
    1067      998      999 1
    1068      998     1042 1
    1069      998     1043 1
    1070      999     1000 1
    1071      999     1044 1
    1072      999     1045 1
    1073     1000     1001 1
    1074     1000     1046 1
    1075     1000     1047 1
    1076     1001     1002 1
    1077     1001     1048 1
    1078     1001     1049 1
    1079     1002     1003 1
    1080     1002     1050 1
    1081     1002     1051 1
    1082     1003     1004 1
    1083     1003     1052 1
    1084     1003     1053 1
    1085     1004     1054 1
    1086     1004     1055 1
    1087     1004     1056 1
    1088     1005     1006 1
    1089     1005     1057 1
    1090     1005     1058 1
    1091     1006     1007 1
    1092     1006     1013 1
    1093     1006     1059 1
    1094     1007     1008 1
    1095     1007     1060 1
    1096     1007     1061 1
    1097     1008     1009 1
    1098     1008     1062 1
    1099     1008     1063 1
    1100     1009     1010 1
    1101     1009     1064 1
    1102     1009     1065 1
    1103     1010     1011 1
    1104     1010     1066 1
    1105     1010     1067 1
    1106     1011     1012 1
    1107     1011     1068 1
    1108     1011     1069 1
    1109     1012     1070 1
    1110     1012     1071 1
    1111     1012     1072 1
    1112     1013     1014 1
    1113     1013     1073 1
    1114     1013     1074 1
    1115     1014     1015 1
    1116     1014     1075 1
    1117     1014     1076 1
    1118     1015     1016 1
    1119     1015     1077 1
    1120     1015     1078 1
    1121     1016     1017 1
    1122     1016     1079 1
    1123     1016     1080 1
    1124     1017     1018 1
    1125     1017     1081 1
    1126     1017     1082 1
    1127     1018     1019 1
    1128     1018     1083 1
    1129     1018     1084 1
    1130     1019     1020 1
    1131     1019     1085 1
    1132     1019     1086 1
    1133     1020     1087 1
    1134     1020     1088 1
    1135     1020     1089 1
    1136     1090     1091 1
    1137     1090     1110 1
    1138     1090     1126 1
    1139     1090     1094 1
    1140     1091     1092 1
    1141     1091     1109 1
    1142     1092     1093 1
    1143     1092     1107 1
    1144     1093     1094 1
    1145     1093     1097 1
    1146     1094     1095 1
    1147     1095     1096 1
    1148     1095     1142 1
    1149     1096     1097 1
    1150     1096     1098 1
    1151     1098     1099 1
    1152     1098     1103 1
    1153     1099     1100 1
    1154     1099     1143 1
    1155     1100     1101 1
    1156     1101     1102 1
    1157     1102     1103 1
    1158     1102     1106 1
    1159     1103     1104 1
    1160     1104     1105 1
    1161     1105     1106 1
    1162     1107     1108 1
    1163     1108     1109 1
    1164     1108     1222 1
    1165     1109     1144 1
    1166     1110     1111 1
    1167     1110     1145 1
    1168     1110     1146 1
    1169     1111     1112 1
    1170     1111     1118 1
    1171     1111     1147 1
    1172     1112     1113 1
    1173     1112     1148 1
    1174     1112     1149 1
    1175     1113     1114 1
    1176     1113     1150 1
    1177     1113     1151 1
    1178     1114     1115 1
    1179     1114     1152 1
    1180     1114     1153 1
    1181     1115     1116 1
    1182     1115     1154 1
    1183     1115     1155 1
    1184     1116     1117 1
    1185     1116     1156 1
    1186     1116     1157 1
    1187     1117     1158 1
    1188     1117     1159 1
    1189     1117     1160 1
    1190     1118     1119 1
    1191     1118     1161 1
    1192     1118     1162 1
    1193     1119     1120 1
    1194     1119     1163 1
    1195     1119     1164 1
    1196     1120     1121 1
    1197     1120     1165 1
    1198     1120     1166 1
    1199     1121     1122 1
    1200     1121     1167 1
    1201     1121     1168 1
    1202     1122     1123 1
    1203     1122     1169 1
    1204     1122     1170 1
    1205     1123     1124 1
    1206     1123     1171 1
    1207     1123     1172 1
    1208     1124     1125 1
    1209     1124     1173 1
    1210     1124     1174 1
    1211     1125     1175 1
    1212     1125     1176 1
    1213     1125     1177 1
    1214     1126     1127 1
    1215     1126     1178 1
    1216     1126     1179 1
    1217     1127     1128 1
    1218     1127     1134 1
    1219     1127     1180 1
    1220     1128     1129 1
    1221     1128     1181 1
    1222     1128     1182 1
    1223     1129     1130 1
    1224     1129     1183 1
    1225     1129     1184 1
    1226     1130     1131 1
    1227     1130     1185 1
    1228     1130     1186 1
    1229     1131     1132 1
    1230     1131     1187 1
    1231     1131     1188 1
    1232     1132     1133 1
    1233     1132     1189 1
    1234     1132     1190 1
    1235     1133     1191 1
    1236     1133     1192 1
    1237     1133     1193 1
    1238     1134     1135 1
    1239     1134     1194 1
    1240     1134     1195 1
    1241     1135     1136 1
    1242     1135     1196 1
    1243     1135     1197 1
    1244     1136     1137 1
    1245     1136     1198 1
    1246     1136     1199 1
    1247     1137     1138 1
    1248     1137     1200 1
    1249     1137     1201 1
    1250     1138     1139 1
    1251     1138     1202 1
    1252     1138     1203 1
    1253     1139     1140 1
    1254     1139     1204 1
    1255     1139     1205 1
    1256     1140     1141 1
    1257     1140     1206 1
    1258     1140     1207 1
    1259     1141     1208 1
    1260     1141     1209 1
    1261     1141     1210 1
    1262     1211     1212 1
    1263     1211     1231 1
    1264     1211     1247 1
    1265     1211     1215 1
    1266     1212     1213 1
    1267     1212     1230 1
    1268     1213     1214 1
    1269     1213     1228 1
    1270     1214     1215 1
    1271     1214     1218 1
    1272     1215     1216 1
    1273     1216     1217 1
    1274     1216     1263 1
    1275     1217     1218 1
    1276     1217     1219 1
    1277     1219     1220 1
    1278     1219     1224 1
    1279     1220     1221 1
    1280     1220     1264 1
    1281     1221     1222 1
    1282     1222     1223 1
    1283     1223     1224 1
    1284     1223     1227 1
    1285     1224     1225 1
    1286     1225     1226 1
    1287     1226     1227 1
    1288     1228     1229 1
    1289     1229     1230 1
    1290     1229     1343 1
    1291     1230     1265 1
    1292     1231     1232 1
    1293     1231     1266 1
    1294     1231     1267 1
    1295     1232     1233 1
    1296     1232     1239 1
    1297     1232     1268 1
    1298     1233     1234 1
    1299     1233     1269 1
    1300     1233     1270 1
    1301     1234     1235 1
    1302     1234     1271 1
    1303     1234     1272 1
    1304     1235     1236 1
    1305     1235     1273 1
    1306     1235     1274 1
    1307     1236     1237 1
    1308     1236     1275 1
    1309     1236     1276 1
    1310     1237     1238 1
    1311     1237     1277 1
    1312     1237     1278 1
    1313     1238     1279 1
    1314     1238     1280 1
    1315     1238     1281 1
    1316     1239     1240 1
    1317     1239     1282 1
    1318     1239     1283 1
    1319     1240     1241 1
    1320     1240     1284 1
    1321     1240     1285 1
    1322     1241     1242 1
    1323     1241     1286 1
    1324     1241     1287 1
    1325     1242     1243 1
    1326     1242     1288 1
    1327     1242     1289 1
    1328     1243     1244 1
    1329     1243     1290 1
    1330     1243     1291 1
    1331     1244     1245 1
    1332     1244     1292 1
    1333     1244     1293 1
    1334     1245     1246 1
    1335     1245     1294 1
    1336     1245     1295 1
    1337     1246     1296 1
    1338     1246     1297 1
    1339     1246     1298 1
    1340     1247     1248 1
    1341     1247     1299 1
    1342     1247     1300 1
    1343     1248     1249 1
    1344     1248     1255 1
    1345     1248     1301 1
    1346     1249     1250 1
    1347     1249     1302 1
    1348     1249     1303 1
    1349     1250     1251 1
    1350     1250     1304 1
    1351     1250     1305 1
    1352     1251     1252 1
    1353     1251     1306 1
    1354     1251     1307 1
    1355     1252     1253 1
    1356     1252     1308 1
    1357     1252     1309 1
    1358     1253     1254 1
    1359     1253     1310 1
    1360     1253     1311 1
    1361     1254     1312 1
    1362     1254     1313 1
    1363     1254     1314 1
    1364     1255     1256 1
    1365     1255     1315 1
    1366     1255     1316 1
    1367     1256     1257 1
    1368     1256     1317 1
    1369     1256     1318 1
    1370     1257     1258 1
    1371     1257     1319 1
    1372     1257     1320 1
    1373     1258     1259 1
    1374     1258     1321 1
    1375     1258     1322 1
    1376     1259     1260 1
    1377     1259     1323 1
    1378     1259     1324 1
    1379     1260     1261 1
    1380     1260     1325 1
    1381     1260     1326 1
    1382     1261     1262 1
    1383     1261     1327 1
    1384     1261     1328 1
    1385     1262     1329 1
    1386     1262     1330 1
    1387     1262     1331 1
    1388     1332     1333 1
    1389     1332     1352 1
    1390     1332     1368 1
    1391     1332     1336 1
    1392     1333     1334 1
    1393     1333     1351 1
    1394     1334     1335 1
    1395     1334     1349 1
    1396     1335     1336 1
    1397     1335     1339 1
    1398     1336     1337 1
    1399     1337     1338 1
    1400     1337     1384 1
    1401     1338     1339 1
    1402     1338     1340 1
    1403     1340     1341 1
    1404     1340     1345 1
    1405     1341     1342 1
    1406     1341     1385 1
    1407     1342     1343 1
    1408     1343     1344 1
    1409     1344     1345 1
    1410     1344     1348 1
    1411     1345     1346 1
    1412     1346     1347 1
    1413     1347     1348 1
    1414     1349     1350 1
    1415     1350     1351 1
    1416     1350     1464 1
    1417     1351     1386 1
    1418     1352     1353 1
    1419     1352     1387 1
    1420     1352     1388 1
    1421     1353     1354 1
    1422     1353     1360 1
    1423     1353     1389 1
    1424     1354     1355 1
    1425     1354     1390 1
    1426     1354     1391 1
    1427     1355     1356 1
    1428     1355     1392 1
    1429     1355     1393 1
    1430     1356     1357 1
    1431     1356     1394 1
    1432     1356     1395 1
    1433     1357     1358 1
    1434     1357     1396 1
    1435     1357     1397 1
    1436     1358     1359 1
    1437     1358     1398 1
    1438     1358     1399 1
    1439     1359     1400 1
    1440     1359     1401 1
    1441     1359     1402 1
    1442     1360     1361 1
    1443     1360     1403 1
    1444     1360     1404 1
    1445     1361     1362 1
    1446     1361     1405 1
    1447     1361     1406 1
    1448     1362     1363 1
    1449     1362     1407 1
    1450     1362     1408 1
    1451     1363     1364 1
    1452     1363     1409 1
    1453     1363     1410 1
    1454     1364     1365 1
    1455     1364     1411 1
    1456     1364     1412 1
    1457     1365     1366 1
    1458     1365     1413 1
    1459     1365     1414 1
    1460     1366     1367 1
    1461     1366     1415 1
    1462     1366     1416 1
    1463     1367     1417 1
    1464     1367     1418 1
    1465     1367     1419 1
    1466     1368     1369 1
    1467     1368     1420 1
    1468     1368     1421 1
    1469     1369     1370 1
    1470     1369     1376 1
    1471     1369     1422 1
    1472     1370     1371 1
    1473     1370     1423 1
    1474     1370     1424 1
    1475     1371     1372 1
    1476     1371     1425 1
    1477     1371     1426 1
    1478     1372     1373 1
    1479     1372     1427 1
    1480     1372     1428 1
    1481     1373     1374 1
    1482     1373     1429 1
    1483     1373     1430 1
    1484     1374     1375 1
    1485     1374     1431 1
    1486     1374     1432 1
    1487     1375     1433 1
    1488     1375     1434 1
    1489     1375     1435 1
    1490     1376     1377 1
    1491     1376     1436 1
    1492     1376     1437 1
    1493     1377     1378 1
    1494     1377     1438 1
    1495     1377     1439 1
    1496     1378     1379 1
    1497     1378     1440 1
    1498     1378     1441 1
    1499     1379     1380 1
    1500     1379     1442 1
    1501     1379     1443 1
    1502     1380     1381 1
    1503     1380     1444 1
    1504     1380     1445 1
    1505     1381     1382 1
    1506     1381     1446 1
    1507     1381     1447 1
    1508     1382     1383 1
    1509     1382     1448 1
    1510     1382     1449 1
    1511     1383     1450 1
    1512     1383     1451 1
    1513     1383     1452 1
    1514     1453     1454 1
    1515     1453     1473 1
    1516     1453     1489 1
    1517     1453     1457 1
    1518     1454     1455 1
    1519     1454     1472 1
    1520     1455     1456 1
    1521     1455     1470 1
    1522     1456     1457 1
    1523     1456     1460 1
    1524     1457     1458 1
    1525     1458     1459 1
    1526     1458     1505 1
    1527     1459     1460 1
    1528     1459     1461 1
    1529     1461     1462 1
    1530     1461     1466 1
    1531     1462     1463 1
    1532     1462     1506 1
    1533     1463     1464 1
    1534     1464     1465 1
    1535     1465     1466 1
    1536     1465     1469 1
    1537     1466     1467 1
    1538     1467     1468 1
    1539     1468     1469 1
    1540     1470     1471 1
    1541     1471     1472 1
    1542     1471     1585 1
    1543     1472     1507 1
    1544     1473     1474 1
    1545     1473     1508 1
    1546     1473     1509 1
    1547     1474     1475 1
    1548     1474     1481 1
    1549     1474     1510 1
    1550     1475     1476 1
    1551     1475     1511 1
    1552     1475     1512 1
    1553     1476     1477 1
    1554     1476     1513 1
    1555     1476     1514 1
    1556     1477     1478 1
    1557     1477     1515 1
    1558     1477     1516 1
    1559     1478     1479 1
    1560     1478     1517 1
    1561     1478     1518 1
    1562     1479     1480 1
    1563     1479     1519 1
    1564     1479     1520 1
    1565     1480     1521 1
    1566     1480     1522 1
    1567     1480     1523 1
    1568     1481     1482 1
    1569     1481     1524 1
    1570     1481     1525 1
    1571     1482     1483 1
    1572     1482     1526 1
    1573     1482     1527 1
    1574     1483     1484 1
    1575     1483     1528 1
    1576     1483     1529 1
    1577     1484     1485 1
    1578     1484     1530 1
    1579     1484     1531 1
    1580     1485     1486 1
    1581     1485     1532 1
    1582     1485     1533 1
    1583     1486     1487 1
    1584     1486     1534 1
    1585     1486     1535 1
    1586     1487     1488 1
    1587     1487     1536 1
    1588     1487     1537 1
    1589     1488     1538 1
    1590     1488     1539 1
    1591     1488     1540 1
    1592     1489     1490 1
    1593     1489     1541 1
    1594     1489     1542 1
    1595     1490     1491 1
    1596     1490     1497 1
    1597     1490     1543 1
    1598     1491     1492 1
    1599     1491     1544 1
    1600     1491     1545 1
    1601     1492     1493 1
    1602     1492     1546 1
    1603     1492     1547 1
    1604     1493     1494 1
    1605     1493     1548 1
    1606     1493     1549 1
    1607     1494     1495 1
    1608     1494     1550 1
    1609     1494     1551 1
    1610     1495     1496 1
    1611     1495     1552 1
    1612     1495     1553 1
    1613     1496     1554 1
    1614     1496     1555 1
    1615     1496     1556 1
    1616     1497     1498 1
    1617     1497     1557 1
    1618     1497     1558 1
    1619     1498     1499 1
    1620     1498     1559 1
    1621     1498     1560 1
    1622     1499     1500 1
    1623     1499     1561 1
    1624     1499     1562 1
    1625     1500     1501 1
    1626     1500     1563 1
    1627     1500     1564 1
    1628     1501     1502 1
    1629     1501     1565 1
    1630     1501     1566 1
    1631     1502     1503 1
    1632     1502     1567 1
    1633     1502     1568 1
    1634     1503     1504 1
    1635     1503     1569 1
    1636     1503     1570 1
    1637     1504     1571 1
    1638     1504     1572 1
    1639     1504     1573 1
    1640     1574     1575 1
    1641     1574     1594 1
    1642     1574     1610 1
    1643     1574     1578 1
    1644     1575     1576 1
    1645     1575     1593 1
    1646     1576     1577 1
    1647     1576     1591 1
    1648     1577     1578 1
    1649     1577     1581 1
    1650     1578     1579 1
    1651     1579     1580 1
    1652     1579     1626 1
    1653     1580     1581 1
    1654     1580     1582 1
    1655     1582     1583 1
    1656     1582     1587 1
    1657     1583     1584 1
    1658     1583     1627 1
    1659     1584     1585 1
    1660     1585     1586 1
    1661     1586     1587 1
    1662     1586     1590 1
    1663     1587     1588 1
    1664     1588     1589 1
    1665     1589     1590 1
    1666     1591     1592 1
    1667     1592     1593 1
    1668     1592     1706 1
    1669     1593     1628 1
    1670     1594     1595 1
    1671     1594     1629 1
    1672     1594     1630 1
    1673     1595     1596 1
    1674     1595     1602 1
    1675     1595     1631 1
    1676     1596     1597 1
    1677     1596     1632 1
    1678     1596     1633 1
    1679     1597     1598 1
    1680     1597     1634 1
    1681     1597     1635 1
    1682     1598     1599 1
    1683     1598     1636 1
    1684     1598     1637 1
    1685     1599     1600 1
    1686     1599     1638 1
    1687     1599     1639 1
    1688     1600     1601 1
    1689     1600     1640 1
    1690     1600     1641 1
    1691     1601     1642 1
    1692     1601     1643 1
    1693     1601     1644 1
    1694     1602     1603 1
    1695     1602     1645 1
    1696     1602     1646 1
    1697     1603     1604 1
    1698     1603     1647 1
    1699     1603     1648 1
    1700     1604     1605 1
    1701     1604     1649 1
    1702     1604     1650 1
    1703     1605     1606 1
    1704     1605     1651 1
    1705     1605     1652 1
    1706     1606     1607 1
    1707     1606     1653 1
    1708     1606     1654 1
    1709     1607     1608 1
    1710     1607     1655 1
    1711     1607     1656 1
    1712     1608     1609 1
    1713     1608     1657 1
    1714     1608     1658 1
    1715     1609     1659 1
    1716     1609     1660 1
    1717     1609     1661 1
    1718     1610     1611 1
    1719     1610     1662 1
    1720     1610     1663 1
    1721     1611     1612 1
    1722     1611     1618 1
    1723     1611     1664 1
    1724     1612     1613 1
    1725     1612     1665 1
    1726     1612     1666 1
    1727     1613     1614 1
    1728     1613     1667 1
    1729     1613     1668 1
    1730     1614     1615 1
    1731     1614     1669 1
    1732     1614     1670 1
    1733     1615     1616 1
    1734     1615     1671 1
    1735     1615     1672 1
    1736     1616     1617 1
    1737     1616     1673 1
    1738     1616     1674 1
    1739     1617     1675 1
    1740     1617     1676 1
    1741     1617     1677 1
    1742     1618     1619 1
    1743     1618     1678 1
    1744     1618     1679 1
    1745     1619     1620 1
    1746     1619     1680 1
    1747     1619     1681 1
    1748     1620     1621 1
    1749     1620     1682 1
    1750     1620     1683 1
    1751     1621     1622 1
    1752     1621     1684 1
    1753     1621     1685 1
    1754     1622     1623 1
    1755     1622     1686 1
    1756     1622     1687 1
    1757     1623     1624 1
    1758     1623     1688 1
    1759     1623     1689 1
    1760     1624     1625 1
    1761     1624     1690 1
    1762     1624     1691 1
    1763     1625     1692 1
    1764     1625     1693 1
    1765     1625     1694 1
    1766     1695     1696 1
    1767     1695     1715 1
    1768     1695     1731 1
    1769     1695     1699 1
    1770     1696     1697 1
    1771     1696     1714 1
    1772     1697     1698 1
    1773     1697     1712 1
    1774     1698     1699 1
    1775     1698     1702 1
    1776     1699     1700 1
    1777     1700     1701 1
    1778     1700     1747 1
    1779     1701     1702 1
    1780     1701     1703 1
    1781     1703     1704 1
    1782     1703     1708 1
    1783     1704     1705 1
    1784     1704     1748 1
    1785     1705     1706 1
    1786     1706     1707 1
    1787     1707     1708 1
    1788     1707     1711 1
    1789     1708     1709 1
    1790     1709     1710 1
    1791     1710     1711 1
    1792     1712     1713 1
    1793     1713     1714 1
    1794     1713     1827 1
    1795     1714     1749 1
    1796     1715     1716 1
    1797     1715     1750 1
    1798     1715     1751 1
    1799     1716     1717 1
    1800     1716     1723 1
    1801     1716     1752 1
    1802     1717     1718 1
    1803     1717     1753 1
    1804     1717     1754 1
    1805     1718     1719 1
    1806     1718     1755 1
    1807     1718     1756 1
    1808     1719     1720 1
    1809     1719     1757 1
    1810     1719     1758 1
    1811     1720     1721 1
    1812     1720     1759 1
    1813     1720     1760 1
    1814     1721     1722 1
    1815     1721     1761 1
    1816     1721     1762 1
    1817     1722     1763 1
    1818     1722     1764 1
    1819     1722     1765 1
    1820     1723     1724 1
    1821     1723     1766 1
    1822     1723     1767 1
    1823     1724     1725 1
    1824     1724     1768 1
    1825     1724     1769 1
    1826     1725     1726 1
    1827     1725     1770 1
    1828     1725     1771 1
    1829     1726     1727 1
    1830     1726     1772 1
    1831     1726     1773 1
    1832     1727     1728 1
    1833     1727     1774 1
    1834     1727     1775 1
    1835     1728     1729 1
    1836     1728     1776 1
    1837     1728     1777 1
    1838     1729     1730 1
    1839     1729     1778 1
    1840     1729     1779 1
    1841     1730     1780 1
    1842     1730     1781 1
    1843     1730     1782 1
    1844     1731     1732 1
    1845     1731     1783 1
    1846     1731     1784 1
    1847     1732     1733 1
    1848     1732     1739 1
    1849     1732     1785 1
    1850     1733     1734 1
    1851     1733     1786 1
    1852     1733     1787 1
    1853     1734     1735 1
    1854     1734     1788 1
    1855     1734     1789 1
    1856     1735     1736 1
    1857     1735     1790 1
    1858     1735     1791 1
    1859     1736     1737 1
    1860     1736     1792 1
    1861     1736     1793 1
    1862     1737     1738 1
    1863     1737     1794 1
    1864     1737     1795 1
    1865     1738     1796 1
    1866     1738     1797 1
    1867     1738     1798 1
    1868     1739     1740 1
    1869     1739     1799 1
    1870     1739     1800 1
    1871     1740     1741 1
    1872     1740     1801 1
    1873     1740     1802 1
    1874     1741     1742 1
    1875     1741     1803 1
    1876     1741     1804 1
    1877     1742     1743 1
    1878     1742     1805 1
    1879     1742     1806 1
    1880     1743     1744 1
    1881     1743     1807 1
    1882     1743     1808 1
    1883     1744     1745 1
    1884     1744     1809 1
    1885     1744     1810 1
    1886     1745     1746 1
    1887     1745     1811 1
    1888     1745     1812 1
    1889     1746     1813 1
    1890     1746     1814 1
    1891     1746     1815 1
    1892     1816     1817 1
    1893     1816     1836 1
    1894     1816     1852 1
    1895     1816     1820 1
    1896     1817     1818 1
    1897     1817     1835 1
    1898     1818     1819 1
    1899     1818     1833 1
    1900     1819     1820 1
    1901     1819     1823 1
    1902     1820     1821 1
    1903     1821     1822 1
    1904     1821     1868 1
    1905     1822     1823 1
    1906     1822     1824 1
    1907     1824     1825 1
    1908     1824     1829 1
    1909     1825     1826 1
    1910     1825     1869 1
    1911     1826     1827 1
    1912     1827     1828 1
    1913     1828     1829 1
    1914     1828     1832 1
    1915     1829     1830 1
    1916     1830     1831 1
    1917     1831     1832 1
    1918     1833     1834 1
    1919     1834     1835 1
    1920     1834     1948 1
    1921     1835     1870 1
    1922     1836     1837 1
    1923     1836     1871 1
    1924     1836     1872 1
    1925     1837     1838 1
    1926     1837     1844 1
    1927     1837     1873 1
    1928     1838     1839 1
    1929     1838     1874 1
    1930     1838     1875 1
    1931     1839     1840 1
    1932     1839     1876 1
    1933     1839     1877 1
    1934     1840     1841 1
    1935     1840     1878 1
    1936     1840     1879 1
    1937     1841     1842 1
    1938     1841     1880 1
    1939     1841     1881 1
    1940     1842     1843 1
    1941     1842     1882 1
    1942     1842     1883 1
    1943     1843     1884 1
    1944     1843     1885 1
    1945     1843     1886 1
    1946     1844     1845 1
    1947     1844     1887 1
    1948     1844     1888 1
    1949     1845     1846 1
    1950     1845     1889 1
    1951     1845     1890 1
    1952     1846     1847 1
    1953     1846     1891 1
    1954     1846     1892 1
    1955     1847     1848 1
    1956     1847     1893 1
    1957     1847     1894 1
    1958     1848     1849 1
    1959     1848     1895 1
    1960     1848     1896 1
    1961     1849     1850 1
    1962     1849     1897 1
    1963     1849     1898 1
    1964     1850     1851 1
    1965     1850     1899 1
    1966     1850     1900 1
    1967     1851     1901 1
    1968     1851     1902 1
    1969     1851     1903 1
    1970     1852     1853 1
    1971     1852     1904 1
    1972     1852     1905 1
    1973     1853     1854 1
    1974     1853     1860 1
    1975     1853     1906 1
    1976     1854     1855 1
    1977     1854     1907 1
    1978     1854     1908 1
    1979     1855     1856 1
    1980     1855     1909 1
    1981     1855     1910 1
    1982     1856     1857 1
    1983     1856     1911 1
    1984     1856     1912 1
    1985     1857     1858 1
    1986     1857     1913 1
    1987     1857     1914 1
    1988     1858     1859 1
    1989     1858     1915 1
    1990     1858     1916 1
    1991     1859     1917 1
    1992     1859     1918 1
    1993     1859     1919 1
    1994     1860     1861 1
    1995     1860     1920 1
    1996     1860     1921 1
    1997     1861     1862 1
    1998     1861     1922 1
    1999     1861     1923 1
    2000     1862     1863 1
    2001     1862     1924 1
    2002     1862     1925 1
    2003     1863     1864 1
    2004     1863     1926 1
    2005     1863     1927 1
    2006     1864     1865 1
    2007     1864     1928 1
    2008     1864     1929 1
    2009     1865     1866 1
    2010     1865     1930 1
    2011     1865     1931 1
    2012     1866     1867 1
    2013     1866     1932 1
    2014     1866     1933 1
    2015     1867     1934 1
    2016     1867     1935 1
    2017     1867     1936 1
    2018     1937     1938 1
    2019     1937     1957 1
    2020     1937     1973 1
    2021     1937     1941 1
    2022     1938     1939 1
    2023     1938     1956 1
    2024     1939     1940 1
    2025     1939     1954 1
    2026     1940     1941 1
    2027     1940     1944 1
    2028     1941     1942 1
    2029     1942     1943 1
    2030     1942     1989 1
    2031     1943     1944 1
    2032     1943     1945 1
    2033     1945     1946 1
    2034     1945     1950 1
    2035     1946     1947 1
    2036     1946     1990 1
    2037     1947     1948 1
    2038     1948     1949 1
    2039     1949     1950 1
    2040     1949     1953 1
    2041     1950     1951 1
    2042     1951     1952 1
    2043     1952     1953 1
    2044     1954     1955 1
    2045     1955     1956 1
    2046     1955     2069 1
    2047     1956     1991 1
    2048     1957     1958 1
    2049     1957     1992 1
    2050     1957     1993 1
    2051     1958     1959 1
    2052     1958     1965 1
    2053     1958     1994 1
    2054     1959     1960 1
    2055     1959     1995 1
    2056     1959     1996 1
    2057     1960     1961 1
    2058     1960     1997 1
    2059     1960     1998 1
    2060     1961     1962 1
    2061     1961     1999 1
    2062     1961     2000 1
    2063     1962     1963 1
    2064     1962     2001 1
    2065     1962     2002 1
    2066     1963     1964 1
    2067     1963     2003 1
    2068     1963     2004 1
    2069     1964     2005 1
    2070     1964     2006 1
    2071     1964     2007 1
    2072     1965     1966 1
    2073     1965     2008 1
    2074     1965     2009 1
    2075     1966     1967 1
    2076     1966     2010 1
    2077     1966     2011 1
    2078     1967     1968 1
    2079     1967     2012 1
    2080     1967     2013 1
    2081     1968     1969 1
    2082     1968     2014 1
    2083     1968     2015 1
    2084     1969     1970 1
    2085     1969     2016 1
    2086     1969     2017 1
    2087     1970     1971 1
    2088     1970     2018 1
    2089     1970     2019 1
    2090     1971     1972 1
    2091     1971     2020 1
    2092     1971     2021 1
    2093     1972     2022 1
    2094     1972     2023 1
    2095     1972     2024 1
    2096     1973     1974 1
    2097     1973     2025 1
    2098     1973     2026 1
    2099     1974     1975 1
    2100     1974     1981 1
    2101     1974     2027 1
    2102     1975     1976 1
    2103     1975     2028 1
    2104     1975     2029 1
    2105     1976     1977 1
    2106     1976     2030 1
    2107     1976     2031 1
    2108     1977     1978 1
    2109     1977     2032 1
    2110     1977     2033 1
    2111     1978     1979 1
    2112     1978     2034 1
    2113     1978     2035 1
    2114     1979     1980 1
    2115     1979     2036 1
    2116     1979     2037 1
    2117     1980     2038 1
    2118     1980     2039 1
    2119     1980     2040 1
    2120     1981     1982 1
    2121     1981     2041 1
    2122     1981     2042 1
    2123     1982     1983 1
    2124     1982     2043 1
    2125     1982     2044 1
    2126     1983     1984 1
    2127     1983     2045 1
    2128     1983     2046 1
    2129     1984     1985 1
    2130     1984     2047 1
    2131     1984     2048 1
    2132     1985     1986 1
    2133     1985     2049 1
    2134     1985     2050 1
    2135     1986     1987 1
    2136     1986     2051 1
    2137     1986     2052 1
    2138     1987     1988 1
    2139     1987     2053 1
    2140     1987     2054 1
    2141     1988     2055 1
    2142     1988     2056 1
    2143     1988     2057 1
    2144     2058     2059 1
    2145     2058     2078 1
    2146     2058     2094 1
    2147     2058     2062 1
    2148     2059     2060 1
    2149     2059     2077 1
    2150     2060     2061 1
    2151     2060     2075 1
    2152     2061     2062 1
    2153     2061     2065 1
    2154     2062     2063 1
    2155     2063     2064 1
    2156     2063     2110 1
    2157     2064     2065 1
    2158     2064     2066 1
    2159     2066     2067 1
    2160     2066     2071 1
    2161     2067     2068 1
    2162     2067     2111 1
    2163     2068     2069 1
    2164     2069     2070 1
    2165     2070     2071 1
    2166     2070     2074 1
    2167     2071     2072 1
    2168     2072     2073 1
    2169     2073     2074 1
    2170     2075     2076 1
    2171     2076     2077 1
    2172     2076     2190 1
    2173     2077     2112 1
    2174     2078     2079 1
    2175     2078     2113 1
    2176     2078     2114 1
    2177     2079     2080 1
    2178     2079     2086 1
    2179     2079     2115 1
    2180     2080     2081 1
    2181     2080     2116 1
    2182     2080     2117 1
    2183     2081     2082 1
    2184     2081     2118 1
    2185     2081     2119 1
    2186     2082     2083 1
    2187     2082     2120 1
    2188     2082     2121 1
    2189     2083     2084 1
    2190     2083     2122 1
    2191     2083     2123 1
    2192     2084     2085 1
    2193     2084     2124 1
    2194     2084     2125 1
    2195     2085     2126 1
    2196     2085     2127 1
    2197     2085     2128 1
    2198     2086     2087 1
    2199     2086     2129 1
    2200     2086     2130 1
    2201     2087     2088 1
    2202     2087     2131 1
    2203     2087     2132 1
    2204     2088     2089 1
    2205     2088     2133 1
    2206     2088     2134 1
    2207     2089     2090 1
    2208     2089     2135 1
    2209     2089     2136 1
    2210     2090     2091 1
    2211     2090     2137 1
    2212     2090     2138 1
    2213     2091     2092 1
    2214     2091     2139 1
    2215     2091     2140 1
    2216     2092     2093 1
    2217     2092     2141 1
    2218     2092     2142 1
    2219     2093     2143 1
    2220     2093     2144 1
    2221     2093     2145 1
    2222     2094     2095 1
    2223     2094     2146 1
    2224     2094     2147 1
    2225     2095     2096 1
    2226     2095     2102 1
    2227     2095     2148 1
    2228     2096     2097 1
    2229     2096     2149 1
    2230     2096     2150 1
    2231     2097     2098 1
    2232     2097     2151 1
    2233     2097     2152 1
    2234     2098     2099 1
    2235     2098     2153 1
    2236     2098     2154 1
    2237     2099     2100 1
    2238     2099     2155 1
    2239     2099     2156 1
    2240     2100     2101 1
    2241     2100     2157 1
    2242     2100     2158 1
    2243     2101     2159 1
    2244     2101     2160 1
    2245     2101     2161 1
    2246     2102     2103 1
    2247     2102     2162 1
    2248     2102     2163 1
    2249     2103     2104 1
    2250     2103     2164 1
    2251     2103     2165 1
    2252     2104     2105 1
    2253     2104     2166 1
    2254     2104     2167 1
    2255     2105     2106 1
    2256     2105     2168 1
    2257     2105     2169 1
    2258     2106     2107 1
    2259     2106     2170 1
    2260     2106     2171 1
    2261     2107     2108 1
    2262     2107     2172 1
    2263     2107     2173 1
    2264     2108     2109 1
    2265     2108     2174 1
    2266     2108     2175 1
    2267     2109     2176 1
    2268     2109     2177 1
    2269     2109     2178 1
    2270     2179     2180 1
    2271     2179     2199 1
    2272     2179     2215 1
    2273     2179     2183 1
    2274     2180     2181 1
    2275     2180     2198 1
    2276     2181     2182 1
    2277     2181     2196 1
    2278     2182     2183 1
    2279     2182     2186 1
    2280     2183     2184 1
    2281     2184     2185 1
    2282     2184     2231 1
    2283     2185     2186 1
    2284     2185     2187 1
    2285     2187     2188 1
    2286     2187     2192 1
    2287     2188     2189 1
    2288     2188     2232 1
    2289     2189     2190 1
    2290     2190     2191 1
    2291     2191     2192 1
    2292     2191     2195 1
    2293     2192     2193 1
    2294     2193     2194 1
    2295     2194     2195 1
    2296     2196     2197 1
    2297     2197     2198 1
    2298     2197     2311 1
    2299     2198     2233 1
    2300     2199     2200 1
    2301     2199     2234 1
    2302     2199     2235 1
    2303     2200     2201 1
    2304     2200     2207 1
    2305     2200     2236 1
    2306     2201     2202 1
    2307     2201     2237 1
    2308     2201     2238 1
    2309     2202     2203 1
    2310     2202     2239 1
    2311     2202     2240 1
    2312     2203     2204 1
    2313     2203     2241 1
    2314     2203     2242 1
    2315     2204     2205 1
    2316     2204     2243 1
    2317     2204     2244 1
    2318     2205     2206 1
    2319     2205     2245 1
    2320     2205     2246 1
    2321     2206     2247 1
    2322     2206     2248 1
    2323     2206     2249 1
    2324     2207     2208 1
    2325     2207     2250 1
    2326     2207     2251 1
    2327     2208     2209 1
    2328     2208     2252 1
    2329     2208     2253 1
    2330     2209     2210 1
    2331     2209     2254 1
    2332     2209     2255 1
    2333     2210     2211 1
    2334     2210     2256 1
    2335     2210     2257 1
    2336     2211     2212 1
    2337     2211     2258 1
    2338     2211     2259 1
    2339     2212     2213 1
    2340     2212     2260 1
    2341     2212     2261 1
    2342     2213     2214 1
    2343     2213     2262 1
    2344     2213     2263 1
    2345     2214     2264 1
    2346     2214     2265 1
    2347     2214     2266 1
    2348     2215     2216 1
    2349     2215     2267 1
    2350     2215     2268 1
    2351     2216     2217 1
    2352     2216     2223 1
    2353     2216     2269 1
    2354     2217     2218 1
    2355     2217     2270 1
    2356     2217     2271 1
    2357     2218     2219 1
    2358     2218     2272 1
    2359     2218     2273 1
    2360     2219     2220 1
    2361     2219     2274 1
    2362     2219     2275 1
    2363     2220     2221 1
    2364     2220     2276 1
    2365     2220     2277 1
    2366     2221     2222 1
    2367     2221     2278 1
    2368     2221     2279 1
    2369     2222     2280 1
    2370     2222     2281 1
    2371     2222     2282 1
    2372     2223     2224 1
    2373     2223     2283 1
    2374     2223     2284 1
    2375     2224     2225 1
    2376     2224     2285 1
    2377     2224     2286 1
    2378     2225     2226 1
    2379     2225     2287 1
    2380     2225     2288 1
    2381     2226     2227 1
    2382     2226     2289 1
    2383     2226     2290 1
    2384     2227     2228 1
    2385     2227     2291 1
    2386     2227     2292 1
    2387     2228     2229 1
    2388     2228     2293 1
    2389     2228     2294 1
    2390     2229     2230 1
    2391     2229     2295 1
    2392     2229     2296 1
    2393     2230     2297 1
    2394     2230     2298 1
    2395     2230     2299 1
    2396     2300     2301 1
    2397     2300     2320 1
    2398     2300     2336 1
    2399     2300     2304 1
    2400     2301     2302 1
    2401     2301     2319 1
    2402     2302     2303 1
    2403     2302     2317 1
    2404     2303     2304 1
    2405     2303     2307 1
    2406     2304     2305 1
    2407     2305     2306 1
    2408     2305     2352 1
    2409     2306     2307 1
    2410     2306     2308 1
    2411     2308     2309 1
    2412     2308     2313 1
    2413     2309     2310 1
    2414     2309     2353 1
    2415     2310     2311 1
    2416     2311     2312 1
    2417     2312     2313 1
    2418     2312     2316 1
    2419     2313     2314 1
    2420     2314     2315 1
    2421     2315     2316 1
    2422     2317     2318 1
    2423     2318     2319 1
    2424     2318     2432 1
    2425     2319     2354 1
    2426     2320     2321 1
    2427     2320     2355 1
    2428     2320     2356 1
    2429     2321     2322 1
    2430     2321     2328 1
    2431     2321     2357 1
    2432     2322     2323 1
    2433     2322     2358 1
    2434     2322     2359 1
    2435     2323     2324 1
    2436     2323     2360 1
    2437     2323     2361 1
    2438     2324     2325 1
    2439     2324     2362 1
    2440     2324     2363 1
    2441     2325     2326 1
    2442     2325     2364 1
    2443     2325     2365 1
    2444     2326     2327 1
    2445     2326     2366 1
    2446     2326     2367 1
    2447     2327     2368 1
    2448     2327     2369 1
    2449     2327     2370 1
    2450     2328     2329 1
    2451     2328     2371 1
    2452     2328     2372 1
    2453     2329     2330 1
    2454     2329     2373 1
    2455     2329     2374 1
    2456     2330     2331 1
    2457     2330     2375 1
    2458     2330     2376 1
    2459     2331     2332 1
    2460     2331     2377 1
    2461     2331     2378 1
    2462     2332     2333 1
    2463     2332     2379 1
    2464     2332     2380 1
    2465     2333     2334 1
    2466     2333     2381 1
    2467     2333     2382 1
    2468     2334     2335 1
    2469     2334     2383 1
    2470     2334     2384 1
    2471     2335     2385 1
    2472     2335     2386 1
    2473     2335     2387 1
    2474     2336     2337 1
    2475     2336     2388 1
    2476     2336     2389 1
    2477     2337     2338 1
    2478     2337     2344 1
    2479     2337     2390 1
    2480     2338     2339 1
    2481     2338     2391 1
    2482     2338     2392 1
    2483     2339     2340 1
    2484     2339     2393 1
    2485     2339     2394 1
    2486     2340     2341 1
    2487     2340     2395 1
    2488     2340     2396 1
    2489     2341     2342 1
    2490     2341     2397 1
    2491     2341     2398 1
    2492     2342     2343 1
    2493     2342     2399 1
    2494     2342     2400 1
    2495     2343     2401 1
    2496     2343     2402 1
    2497     2343     2403 1
    2498     2344     2345 1
    2499     2344     2404 1
    2500     2344     2405 1
    2501     2345     2346 1
    2502     2345     2406 1
    2503     2345     2407 1
    2504     2346     2347 1
    2505     2346     2408 1
    2506     2346     2409 1
    2507     2347     2348 1
    2508     2347     2410 1
    2509     2347     2411 1
    2510     2348     2349 1
    2511     2348     2412 1
    2512     2348     2413 1
    2513     2349     2350 1
    2514     2349     2414 1
    2515     2349     2415 1
    2516     2350     2351 1
    2517     2350     2416 1
    2518     2350     2417 1
    2519     2351     2418 1
    2520     2351     2419 1
    2521     2351     2420 1
    2522     2421     2422 1
    2523     2421     2441 1
    2524     2421     2457 1
    2525     2421     2425 1
    2526     2422     2423 1
    2527     2422     2440 1
    2528     2423     2424 1
    2529     2423     2438 1
    2530     2424     2425 1
    2531     2424     2428 1
    2532     2425     2426 1
    2533     2426     2427 1
    2534     2426     2473 1
    2535     2427     2428 1
    2536     2427     2429 1
    2537     2429     2430 1
    2538     2429     2434 1
    2539     2430     2431 1
    2540     2430     2474 1
    2541     2431     2432 1
    2542     2432     2433 1
    2543     2433     2434 1
    2544     2433     2437 1
    2545     2434     2435 1
    2546     2435     2436 1
    2547     2436     2437 1
    2548     2438     2439 1
    2549     2439     2440 1
    2550     2439     2553 1
    2551     2440     2475 1
    2552     2441     2442 1
    2553     2441     2476 1
    2554     2441     2477 1
    2555     2442     2443 1
    2556     2442     2449 1
    2557     2442     2478 1
    2558     2443     2444 1
    2559     2443     2479 1
    2560     2443     2480 1
    2561     2444     2445 1
    2562     2444     2481 1
    2563     2444     2482 1
    2564     2445     2446 1
    2565     2445     2483 1
    2566     2445     2484 1
    2567     2446     2447 1
    2568     2446     2485 1
    2569     2446     2486 1
    2570     2447     2448 1
    2571     2447     2487 1
    2572     2447     2488 1
    2573     2448     2489 1
    2574     2448     2490 1
    2575     2448     2491 1
    2576     2449     2450 1
    2577     2449     2492 1
    2578     2449     2493 1
    2579     2450     2451 1
    2580     2450     2494 1
    2581     2450     2495 1
    2582     2451     2452 1
    2583     2451     2496 1
    2584     2451     2497 1
    2585     2452     2453 1
    2586     2452     2498 1
    2587     2452     2499 1
    2588     2453     2454 1
    2589     2453     2500 1
    2590     2453     2501 1
    2591     2454     2455 1
    2592     2454     2502 1
    2593     2454     2503 1
    2594     2455     2456 1
    2595     2455     2504 1
    2596     2455     2505 1
    2597     2456     2506 1
    2598     2456     2507 1
    2599     2456     2508 1
    2600     2457     2458 1
    2601     2457     2509 1
    2602     2457     2510 1
    2603     2458     2459 1
    2604     2458     2465 1
    2605     2458     2511 1
    2606     2459     2460 1
    2607     2459     2512 1
    2608     2459     2513 1
    2609     2460     2461 1
    2610     2460     2514 1
    2611     2460     2515 1
    2612     2461     2462 1
    2613     2461     2516 1
    2614     2461     2517 1
    2615     2462     2463 1
    2616     2462     2518 1
    2617     2462     2519 1
    2618     2463     2464 1
    2619     2463     2520 1
    2620     2463     2521 1
    2621     2464     2522 1
    2622     2464     2523 1
    2623     2464     2524 1
    2624     2465     2466 1
    2625     2465     2525 1
    2626     2465     2526 1
    2627     2466     2467 1
    2628     2466     2527 1
    2629     2466     2528 1
    2630     2467     2468 1
    2631     2467     2529 1
    2632     2467     2530 1
    2633     2468     2469 1
    2634     2468     2531 1
    2635     2468     2532 1
    2636     2469     2470 1
    2637     2469     2533 1
    2638     2469     2534 1
    2639     2470     2471 1
    2640     2470     2535 1
    2641     2470     2536 1
    2642     2471     2472 1
    2643     2471     2537 1
    2644     2471     2538 1
    2645     2472     2539 1
    2646     2472     2540 1
    2647     2472     2541 1
    2648     2542     2543 1
    2649     2542     2562 1
    2650     2542     2578 1
    2651     2542     2546 1
    2652     2543     2544 1
    2653     2543     2561 1
    2654     2544     2545 1
    2655     2544     2559 1
    2656     2545     2546 1
    2657     2545     2549 1
    2658     2546     2547 1
    2659     2547     2548 1
    2660     2547     2594 1
    2661     2548     2549 1
    2662     2548     2550 1
    2663     2550     2551 1
    2664     2550     2555 1
    2665     2551     2552 1
    2666     2551     2595 1
    2667     2552     2553 1
    2668     2553     2554 1
    2669     2554     2555 1
    2670     2554     2558 1
    2671     2555     2556 1
    2672     2556     2557 1
    2673     2557     2558 1
    2674     2559     2560 1
    2675     2560     2561 1
    2676     2560     2674 1
    2677     2561     2596 1
    2678     2562     2563 1
    2679     2562     2597 1
    2680     2562     2598 1
    2681     2563     2564 1
    2682     2563     2570 1
    2683     2563     2599 1
    2684     2564     2565 1
    2685     2564     2600 1
    2686     2564     2601 1
    2687     2565     2566 1
    2688     2565     2602 1
    2689     2565     2603 1
    2690     2566     2567 1
    2691     2566     2604 1
    2692     2566     2605 1
    2693     2567     2568 1
    2694     2567     2606 1
    2695     2567     2607 1
    2696     2568     2569 1
    2697     2568     2608 1
    2698     2568     2609 1
    2699     2569     2610 1
    2700     2569     2611 1
    2701     2569     2612 1
    2702     2570     2571 1
    2703     2570     2613 1
    2704     2570     2614 1
    2705     2571     2572 1
    2706     2571     2615 1
    2707     2571     2616 1
    2708     2572     2573 1
    2709     2572     2617 1
    2710     2572     2618 1
    2711     2573     2574 1
    2712     2573     2619 1
    2713     2573     2620 1
    2714     2574     2575 1
    2715     2574     2621 1
    2716     2574     2622 1
    2717     2575     2576 1
    2718     2575     2623 1
    2719     2575     2624 1
    2720     2576     2577 1
    2721     2576     2625 1
    2722     2576     2626 1
    2723     2577     2627 1
    2724     2577     2628 1
    2725     2577     2629 1
    2726     2578     2579 1
    2727     2578     2630 1
    2728     2578     2631 1
    2729     2579     2580 1
    2730     2579     2586 1
    2731     2579     2632 1
    2732     2580     2581 1
    2733     2580     2633 1
    2734     2580     2634 1
    2735     2581     2582 1
    2736     2581     2635 1
    2737     2581     2636 1
    2738     2582     2583 1
    2739     2582     2637 1
    2740     2582     2638 1
    2741     2583     2584 1
    2742     2583     2639 1
    2743     2583     2640 1
    2744     2584     2585 1
    2745     2584     2641 1
    2746     2584     2642 1
    2747     2585     2643 1
    2748     2585     2644 1
    2749     2585     2645 1
    2750     2586     2587 1
    2751     2586     2646 1
    2752     2586     2647 1
    2753     2587     2588 1
    2754     2587     2648 1
    2755     2587     2649 1
    2756     2588     2589 1
    2757     2588     2650 1
    2758     2588     2651 1
    2759     2589     2590 1
    2760     2589     2652 1
    2761     2589     2653 1
    2762     2590     2591 1
    2763     2590     2654 1
    2764     2590     2655 1
    2765     2591     2592 1
    2766     2591     2656 1
    2767     2591     2657 1
    2768     2592     2593 1
    2769     2592     2658 1
    2770     2592     2659 1
    2771     2593     2660 1
    2772     2593     2661 1
    2773     2593     2662 1
    2774     2663     2664 1
    2775     2663     2683 1
    2776     2663     2699 1
    2777     2663     2667 1
    2778     2664     2665 1
    2779     2664     2682 1
    2780     2665     2666 1
    2781     2665     2680 1
    2782     2666     2667 1
    2783     2666     2670 1
    2784     2667     2668 1
    2785     2668     2669 1
    2786     2668     2715 1
    2787     2669     2670 1
    2788     2669     2671 1
    2789     2671     2672 1
    2790     2671     2676 1
    2791     2672     2673 1
    2792     2672     2716 1
    2793     2673     2674 1
    2794     2674     2675 1
    2795     2675     2676 1
    2796     2675     2679 1
    2797     2676     2677 1
    2798     2677     2678 1
    2799     2678     2679 1
    2800     2680     2681 1
    2801     2681     2682 1
    2802     2681     2795 1
    2803     2682     2717 1
    2804     2683     2684 1
    2805     2683     2718 1
    2806     2683     2719 1
    2807     2684     2685 1
    2808     2684     2691 1
    2809     2684     2720 1
    2810     2685     2686 1
    2811     2685     2721 1
    2812     2685     2722 1
    2813     2686     2687 1
    2814     2686     2723 1
    2815     2686     2724 1
    2816     2687     2688 1
    2817     2687     2725 1
    2818     2687     2726 1
    2819     2688     2689 1
    2820     2688     2727 1
    2821     2688     2728 1
    2822     2689     2690 1
    2823     2689     2729 1
    2824     2689     2730 1
    2825     2690     2731 1
    2826     2690     2732 1
    2827     2690     2733 1
    2828     2691     2692 1
    2829     2691     2734 1
    2830     2691     2735 1
    2831     2692     2693 1
    2832     2692     2736 1
    2833     2692     2737 1
    2834     2693     2694 1
    2835     2693     2738 1
    2836     2693     2739 1
    2837     2694     2695 1
    2838     2694     2740 1
    2839     2694     2741 1
    2840     2695     2696 1
    2841     2695     2742 1
    2842     2695     2743 1
    2843     2696     2697 1
    2844     2696     2744 1
    2845     2696     2745 1
    2846     2697     2698 1
    2847     2697     2746 1
    2848     2697     2747 1
    2849     2698     2748 1
    2850     2698     2749 1
    2851     2698     2750 1
    2852     2699     2700 1
    2853     2699     2751 1
    2854     2699     2752 1
    2855     2700     2701 1
    2856     2700     2707 1
    2857     2700     2753 1
    2858     2701     2702 1
    2859     2701     2754 1
    2860     2701     2755 1
    2861     2702     2703 1
    2862     2702     2756 1
    2863     2702     2757 1
    2864     2703     2704 1
    2865     2703     2758 1
    2866     2703     2759 1
    2867     2704     2705 1
    2868     2704     2760 1
    2869     2704     2761 1
    2870     2705     2706 1
    2871     2705     2762 1
    2872     2705     2763 1
    2873     2706     2764 1
    2874     2706     2765 1
    2875     2706     2766 1
    2876     2707     2708 1
    2877     2707     2767 1
    2878     2707     2768 1
    2879     2708     2709 1
    2880     2708     2769 1
    2881     2708     2770 1
    2882     2709     2710 1
    2883     2709     2771 1
    2884     2709     2772 1
    2885     2710     2711 1
    2886     2710     2773 1
    2887     2710     2774 1
    2888     2711     2712 1
    2889     2711     2775 1
    2890     2711     2776 1
    2891     2712     2713 1
    2892     2712     2777 1
    2893     2712     2778 1
    2894     2713     2714 1
    2895     2713     2779 1
    2896     2713     2780 1
    2897     2714     2781 1
    2898     2714     2782 1
    2899     2714     2783 1
    2900     2784     2785 1
    2901     2784     2804 1
    2902     2784     2820 1
    2903     2784     2788 1
    2904     2785     2786 1
    2905     2785     2803 1
    2906     2786     2787 1
    2907     2786     2801 1
    2908     2787     2788 1
    2909     2787     2791 1
    2910     2788     2789 1
    2911     2789     2790 1
    2912     2789     2836 1
    2913     2790     2791 1
    2914     2790     2792 1
    2915     2792     2793 1
    2916     2792     2797 1
    2917     2793     2794 1
    2918     2793     2837 1
    2919     2794     2795 1
    2920     2795     2796 1
    2921     2796     2797 1
    2922     2796     2800 1
    2923     2797     2798 1
    2924     2798     2799 1
    2925     2799     2800 1
    2926     2801     2802 1
    2927     2802     2803 1
    2928     2802     2916 1
    2929     2803     2838 1
    2930     2804     2805 1
    2931     2804     2839 1
    2932     2804     2840 1
    2933     2805     2806 1
    2934     2805     2812 1
    2935     2805     2841 1
    2936     2806     2807 1
    2937     2806     2842 1
    2938     2806     2843 1
    2939     2807     2808 1
    2940     2807     2844 1
    2941     2807     2845 1
    2942     2808     2809 1
    2943     2808     2846 1
    2944     2808     2847 1
    2945     2809     2810 1
    2946     2809     2848 1
    2947     2809     2849 1
    2948     2810     2811 1
    2949     2810     2850 1
    2950     2810     2851 1
    2951     2811     2852 1
    2952     2811     2853 1
    2953     2811     2854 1
    2954     2812     2813 1
    2955     2812     2855 1
    2956     2812     2856 1
    2957     2813     2814 1
    2958     2813     2857 1
    2959     2813     2858 1
    2960     2814     2815 1
    2961     2814     2859 1
    2962     2814     2860 1
    2963     2815     2816 1
    2964     2815     2861 1
    2965     2815     2862 1
    2966     2816     2817 1
    2967     2816     2863 1
    2968     2816     2864 1
    2969     2817     2818 1
    2970     2817     2865 1
    2971     2817     2866 1
    2972     2818     2819 1
    2973     2818     2867 1
    2974     2818     2868 1
    2975     2819     2869 1
    2976     2819     2870 1
    2977     2819     2871 1
    2978     2820     2821 1
    2979     2820     2872 1
    2980     2820     2873 1
    2981     2821     2822 1
    2982     2821     2828 1
    2983     2821     2874 1
    2984     2822     2823 1
    2985     2822     2875 1
    2986     2822     2876 1
    2987     2823     2824 1
    2988     2823     2877 1
    2989     2823     2878 1
    2990     2824     2825 1
    2991     2824     2879 1
    2992     2824     2880 1
    2993     2825     2826 1
    2994     2825     2881 1
    2995     2825     2882 1
    2996     2826     2827 1
    2997     2826     2883 1
    2998     2826     2884 1
    2999     2827     2885 1
    3000     2827     2886 1
    3001     2827     2887 1
    3002     2828     2829 1
    3003     2828     2888 1
    3004     2828     2889 1
    3005     2829     2830 1
    3006     2829     2890 1
    3007     2829     2891 1
    3008     2830     2831 1
    3009     2830     2892 1
    3010     2830     2893 1
    3011     2831     2832 1
    3012     2831     2894 1
    3013     2831     2895 1
    3014     2832     2833 1
    3015     2832     2896 1
    3016     2832     2897 1
    3017     2833     2834 1
    3018     2833     2898 1
    3019     2833     2899 1
    3020     2834     2835 1
    3021     2834     2900 1
    3022     2834     2901 1
    3023     2835     2902 1
    3024     2835     2903 1
    3025     2835     2904 1
    3026     2905     2906 1
    3027     2905     2925 1
    3028     2905     2941 1
    3029     2905     2909 1
    3030     2906     2907 1
    3031     2906     2924 1
    3032     2907     2908 1
    3033     2907     2922 1
    3034     2908     2909 1
    3035     2908     2912 1
    3036     2909     2910 1
    3037     2910     2911 1
    3038     2910     2957 1
    3039     2911     2912 1
    3040     2911     2913 1
    3041     2913     2914 1
    3042     2913     2918 1
    3043     2914     2915 1
    3044     2914     2958 1
    3045     2915     2916 1
    3046     2916     2917 1
    3047     2917     2918 1
    3048     2917     2921 1
    3049     2918     2919 1
    3050     2919     2920 1
    3051     2920     2921 1
    3052     2922     2923 1
    3053     2923     2924 1
    3054     2923     3037 1
    3055     2924     2959 1
    3056     2925     2926 1
    3057     2925     2960 1
    3058     2925     2961 1
    3059     2926     2927 1
    3060     2926     2933 1
    3061     2926     2962 1
    3062     2927     2928 1
    3063     2927     2963 1
    3064     2927     2964 1
    3065     2928     2929 1
    3066     2928     2965 1
    3067     2928     2966 1
    3068     2929     2930 1
    3069     2929     2967 1
    3070     2929     2968 1
    3071     2930     2931 1
    3072     2930     2969 1
    3073     2930     2970 1
    3074     2931     2932 1
    3075     2931     2971 1
    3076     2931     2972 1
    3077     2932     2973 1
    3078     2932     2974 1
    3079     2932     2975 1
    3080     2933     2934 1
    3081     2933     2976 1
    3082     2933     2977 1
    3083     2934     2935 1
    3084     2934     2978 1
    3085     2934     2979 1
    3086     2935     2936 1
    3087     2935     2980 1
    3088     2935     2981 1
    3089     2936     2937 1
    3090     2936     2982 1
    3091     2936     2983 1
    3092     2937     2938 1
    3093     2937     2984 1
    3094     2937     2985 1
    3095     2938     2939 1
    3096     2938     2986 1
    3097     2938     2987 1
    3098     2939     2940 1
    3099     2939     2988 1
    3100     2939     2989 1
    3101     2940     2990 1
    3102     2940     2991 1
    3103     2940     2992 1
    3104     2941     2942 1
    3105     2941     2993 1
    3106     2941     2994 1
    3107     2942     2943 1
    3108     2942     2949 1
    3109     2942     2995 1
    3110     2943     2944 1
    3111     2943     2996 1
    3112     2943     2997 1
    3113     2944     2945 1
    3114     2944     2998 1
    3115     2944     2999 1
    3116     2945     2946 1
    3117     2945     3000 1
    3118     2945     3001 1
    3119     2946     2947 1
    3120     2946     3002 1
    3121     2946     3003 1
    3122     2947     2948 1
    3123     2947     3004 1
    3124     2947     3005 1
    3125     2948     3006 1
    3126     2948     3007 1
    3127     2948     3008 1
    3128     2949     2950 1
    3129     2949     3009 1
    3130     2949     3010 1
    3131     2950     2951 1
    3132     2950     3011 1
    3133     2950     3012 1
    3134     2951     2952 1
    3135     2951     3013 1
    3136     2951     3014 1
    3137     2952     2953 1
    3138     2952     3015 1
    3139     2952     3016 1
    3140     2953     2954 1
    3141     2953     3017 1
    3142     2953     3018 1
    3143     2954     2955 1
    3144     2954     3019 1
    3145     2954     3020 1
    3146     2955     2956 1
    3147     2955     3021 1
    3148     2955     3022 1
    3149     2956     3023 1
    3150     2956     3024 1
    3151     2956     3025 1
    3152     3026     3027 1
    3153     3026     3046 1
    3154     3026     3062 1
    3155     3026     3030 1
    3156     3027     3028 1
    3157     3027     3045 1
    3158     3028     3029 1
    3159     3028     3043 1
    3160     3029     3030 1
    3161     3029     3033 1
    3162     3030     3031 1
    3163     3031     3032 1
    3164     3031     3078 1
    3165     3032     3033 1
    3166     3032     3034 1
    3167     3034     3035 1
    3168     3034     3039 1
    3169     3035     3036 1
    3170     3035     3079 1
    3171     3036     3037 1
    3172     3037     3038 1
    3173     3038     3039 1
    3174     3038     3042 1
    3175     3039     3040 1
    3176     3040     3041 1
    3177     3041     3042 1
    3178     3043     3044 1
    3179     3044     3045 1
    3180     3044     3158 1
    3181     3045     3080 1
    3182     3046     3047 1
    3183     3046     3081 1
    3184     3046     3082 1
    3185     3047     3048 1
    3186     3047     3054 1
    3187     3047     3083 1
    3188     3048     3049 1
    3189     3048     3084 1
    3190     3048     3085 1
    3191     3049     3050 1
    3192     3049     3086 1
    3193     3049     3087 1
    3194     3050     3051 1
    3195     3050     3088 1
    3196     3050     3089 1
    3197     3051     3052 1
    3198     3051     3090 1
    3199     3051     3091 1
    3200     3052     3053 1
    3201     3052     3092 1
    3202     3052     3093 1
    3203     3053     3094 1
    3204     3053     3095 1
    3205     3053     3096 1
    3206     3054     3055 1
    3207     3054     3097 1
    3208     3054     3098 1
    3209     3055     3056 1
    3210     3055     3099 1
    3211     3055     3100 1
    3212     3056     3057 1
    3213     3056     3101 1
    3214     3056     3102 1
    3215     3057     3058 1
    3216     3057     3103 1
    3217     3057     3104 1
    3218     3058     3059 1
    3219     3058     3105 1
    3220     3058     3106 1
    3221     3059     3060 1
    3222     3059     3107 1
    3223     3059     3108 1
    3224     3060     3061 1
    3225     3060     3109 1
    3226     3060     3110 1
    3227     3061     3111 1
    3228     3061     3112 1
    3229     3061     3113 1
    3230     3062     3063 1
    3231     3062     3114 1
    3232     3062     3115 1
    3233     3063     3064 1
    3234     3063     3070 1
    3235     3063     3116 1
    3236     3064     3065 1
    3237     3064     3117 1
    3238     3064     3118 1
    3239     3065     3066 1
    3240     3065     3119 1
    3241     3065     3120 1
    3242     3066     3067 1
    3243     3066     3121 1
    3244     3066     3122 1
    3245     3067     3068 1
    3246     3067     3123 1
    3247     3067     3124 1
    3248     3068     3069 1
    3249     3068     3125 1
    3250     3068     3126 1
    3251     3069     3127 1
    3252     3069     3128 1
    3253     3069     3129 1
    3254     3070     3071 1
    3255     3070     3130 1
    3256     3070     3131 1
    3257     3071     3072 1
    3258     3071     3132 1
    3259     3071     3133 1
    3260     3072     3073 1
    3261     3072     3134 1
    3262     3072     3135 1
    3263     3073     3074 1
    3264     3073     3136 1
    3265     3073     3137 1
    3266     3074     3075 1
    3267     3074     3138 1
    3268     3074     3139 1
    3269     3075     3076 1
    3270     3075     3140 1
    3271     3075     3141 1
    3272     3076     3077 1
    3273     3076     3142 1
    3274     3076     3143 1
    3275     3077     3144 1
    3276     3077     3145 1
    3277     3077     3146 1
    3278     3147     3148 1
    3279     3147     3167 1
    3280     3147     3183 1
    3281     3147     3151 1
    3282     3148     3149 1
    3283     3148     3166 1
    3284     3149     3150 1
    3285     3149     3164 1
    3286     3150     3151 1
    3287     3150     3154 1
    3288     3151     3152 1
    3289     3152     3153 1
    3290     3152     3199 1
    3291     3153     3154 1
    3292     3153     3155 1
    3293     3155     3156 1
    3294     3155     3160 1
    3295     3156     3157 1
    3296     3156     3200 1
    3297     3157     3158 1
    3298     3158     3159 1
    3299     3159     3160 1
    3300     3159     3163 1
    3301     3160     3161 1
    3302     3161     3162 1
    3303     3162     3163 1
    3304     3164     3165 1
    3305     3165     3166 1
    3306     3165     3279 1
    3307     3166     3201 1
    3308     3167     3168 1
    3309     3167     3202 1
    3310     3167     3203 1
    3311     3168     3169 1
    3312     3168     3175 1
    3313     3168     3204 1
    3314     3169     3170 1
    3315     3169     3205 1
    3316     3169     3206 1
    3317     3170     3171 1
    3318     3170     3207 1
    3319     3170     3208 1
    3320     3171     3172 1
    3321     3171     3209 1
    3322     3171     3210 1
    3323     3172     3173 1
    3324     3172     3211 1
    3325     3172     3212 1
    3326     3173     3174 1
    3327     3173     3213 1
    3328     3173     3214 1
    3329     3174     3215 1
    3330     3174     3216 1
    3331     3174     3217 1
    3332     3175     3176 1
    3333     3175     3218 1
    3334     3175     3219 1
    3335     3176     3177 1
    3336     3176     3220 1
    3337     3176     3221 1
    3338     3177     3178 1
    3339     3177     3222 1
    3340     3177     3223 1
    3341     3178     3179 1
    3342     3178     3224 1
    3343     3178     3225 1
    3344     3179     3180 1
    3345     3179     3226 1
    3346     3179     3227 1
    3347     3180     3181 1
    3348     3180     3228 1
    3349     3180     3229 1
    3350     3181     3182 1
    3351     3181     3230 1
    3352     3181     3231 1
    3353     3182     3232 1
    3354     3182     3233 1
    3355     3182     3234 1
    3356     3183     3184 1
    3357     3183     3235 1
    3358     3183     3236 1
    3359     3184     3185 1
    3360     3184     3191 1
    3361     3184     3237 1
    3362     3185     3186 1
    3363     3185     3238 1
    3364     3185     3239 1
    3365     3186     3187 1
    3366     3186     3240 1
    3367     3186     3241 1
    3368     3187     3188 1
    3369     3187     3242 1
    3370     3187     3243 1
    3371     3188     3189 1
    3372     3188     3244 1
    3373     3188     3245 1
    3374     3189     3190 1
    3375     3189     3246 1
    3376     3189     3247 1
    3377     3190     3248 1
    3378     3190     3249 1
    3379     3190     3250 1
    3380     3191     3192 1
    3381     3191     3251 1
    3382     3191     3252 1
    3383     3192     3193 1
    3384     3192     3253 1
    3385     3192     3254 1
    3386     3193     3194 1
    3387     3193     3255 1
    3388     3193     3256 1
    3389     3194     3195 1
    3390     3194     3257 1
    3391     3194     3258 1
    3392     3195     3196 1
    3393     3195     3259 1
    3394     3195     3260 1
    3395     3196     3197 1
    3396     3196     3261 1
    3397     3196     3262 1
    3398     3197     3198 1
    3399     3197     3263 1
    3400     3197     3264 1
    3401     3198     3265 1
    3402     3198     3266 1
    3403     3198     3267 1
    3404     3268     3269 1
    3405     3268     3288 1
    3406     3268     3304 1
    3407     3268     3272 1
    3408     3269     3270 1
    3409     3269     3287 1
    3410     3270     3271 1
    3411     3270     3285 1
    3412     3271     3272 1
    3413     3271     3275 1
    3414     3272     3273 1
    3415     3273     3274 1
    3416     3273     3320 1
    3417     3274     3275 1
    3418     3274     3276 1
    3419     3276     3277 1
    3420     3276     3281 1
    3421     3277     3278 1
    3422     3277     3321 1
    3423     3278     3279 1
    3424     3279     3280 1
    3425     3280     3281 1
    3426     3280     3284 1
    3427     3281     3282 1
    3428     3282     3283 1
    3429     3283     3284 1
    3430     3285     3286 1
    3431     3286     3287 1
    3432     3286     3400 1
    3433     3287     3322 1
    3434     3288     3289 1
    3435     3288     3323 1
    3436     3288     3324 1
    3437     3289     3290 1
    3438     3289     3296 1
    3439     3289     3325 1
    3440     3290     3291 1
    3441     3290     3326 1
    3442     3290     3327 1
    3443     3291     3292 1
    3444     3291     3328 1
    3445     3291     3329 1
    3446     3292     3293 1
    3447     3292     3330 1
    3448     3292     3331 1
    3449     3293     3294 1
    3450     3293     3332 1
    3451     3293     3333 1
    3452     3294     3295 1
    3453     3294     3334 1
    3454     3294     3335 1
    3455     3295     3336 1
    3456     3295     3337 1
    3457     3295     3338 1
    3458     3296     3297 1
    3459     3296     3339 1
    3460     3296     3340 1
    3461     3297     3298 1
    3462     3297     3341 1
    3463     3297     3342 1
    3464     3298     3299 1
    3465     3298     3343 1
    3466     3298     3344 1
    3467     3299     3300 1
    3468     3299     3345 1
    3469     3299     3346 1
    3470     3300     3301 1
    3471     3300     3347 1
    3472     3300     3348 1
    3473     3301     3302 1
    3474     3301     3349 1
    3475     3301     3350 1
    3476     3302     3303 1
    3477     3302     3351 1
    3478     3302     3352 1
    3479     3303     3353 1
    3480     3303     3354 1
    3481     3303     3355 1
    3482     3304     3305 1
    3483     3304     3356 1
    3484     3304     3357 1
    3485     3305     3306 1
    3486     3305     3312 1
    3487     3305     3358 1
    3488     3306     3307 1
    3489     3306     3359 1
    3490     3306     3360 1
    3491     3307     3308 1
    3492     3307     3361 1
    3493     3307     3362 1
    3494     3308     3309 1
    3495     3308     3363 1
    3496     3308     3364 1
    3497     3309     3310 1
    3498     3309     3365 1
    3499     3309     3366 1
    3500     3310     3311 1
    3501     3310     3367 1
    3502     3310     3368 1
    3503     3311     3369 1
    3504     3311     3370 1
    3505     3311     3371 1
    3506     3312     3313 1
    3507     3312     3372 1
    3508     3312     3373 1
    3509     3313     3314 1
    3510     3313     3374 1
    3511     3313     3375 1
    3512     3314     3315 1
    3513     3314     3376 1
    3514     3314     3377 1
    3515     3315     3316 1
    3516     3315     3378 1
    3517     3315     3379 1
    3518     3316     3317 1
    3519     3316     3380 1
    3520     3316     3381 1
    3521     3317     3318 1
    3522     3317     3382 1
    3523     3317     3383 1
    3524     3318     3319 1
    3525     3318     3384 1
    3526     3318     3385 1
    3527     3319     3386 1
    3528     3319     3387 1
    3529     3319     3388 1
    3530     3389     3390 1
    3531     3389     3409 1
    3532     3389     3425 1
    3533     3389     3393 1
    3534     3390     3391 1
    3535     3390     3408 1
    3536     3391     3392 1
    3537     3391     3406 1
    3538     3392     3393 1
    3539     3392     3396 1
    3540     3393     3394 1
    3541     3394     3395 1
    3542     3394     3441 1
    3543     3395     3396 1
    3544     3395     3397 1
    3545     3397     3398 1
    3546     3397     3402 1
    3547     3398     3399 1
    3548     3398     3442 1
    3549     3399     3400 1
    3550     3400     3401 1
    3551     3401     3402 1
    3552     3401     3405 1
    3553     3402     3403 1
    3554     3403     3404 1
    3555     3404     3405 1
    3556     3406     3407 1
    3557     3407     3408 1
    3558     3407     3521 1
    3559     3408     3443 1
    3560     3409     3410 1
    3561     3409     3444 1
    3562     3409     3445 1
    3563     3410     3411 1
    3564     3410     3417 1
    3565     3410     3446 1
    3566     3411     3412 1
    3567     3411     3447 1
    3568     3411     3448 1
    3569     3412     3413 1
    3570     3412     3449 1
    3571     3412     3450 1
    3572     3413     3414 1
    3573     3413     3451 1
    3574     3413     3452 1
    3575     3414     3415 1
    3576     3414     3453 1
    3577     3414     3454 1
    3578     3415     3416 1
    3579     3415     3455 1
    3580     3415     3456 1
    3581     3416     3457 1
    3582     3416     3458 1
    3583     3416     3459 1
    3584     3417     3418 1
    3585     3417     3460 1
    3586     3417     3461 1
    3587     3418     3419 1
    3588     3418     3462 1
    3589     3418     3463 1
    3590     3419     3420 1
    3591     3419     3464 1
    3592     3419     3465 1
    3593     3420     3421 1
    3594     3420     3466 1
    3595     3420     3467 1
    3596     3421     3422 1
    3597     3421     3468 1
    3598     3421     3469 1
    3599     3422     3423 1
    3600     3422     3470 1
    3601     3422     3471 1
    3602     3423     3424 1
    3603     3423     3472 1
    3604     3423     3473 1
    3605     3424     3474 1
    3606     3424     3475 1
    3607     3424     3476 1
    3608     3425     3426 1
    3609     3425     3477 1
    3610     3425     3478 1
    3611     3426     3427 1
    3612     3426     3433 1
    3613     3426     3479 1
    3614     3427     3428 1
    3615     3427     3480 1
    3616     3427     3481 1
    3617     3428     3429 1
    3618     3428     3482 1
    3619     3428     3483 1
    3620     3429     3430 1
    3621     3429     3484 1
    3622     3429     3485 1
    3623     3430     3431 1
    3624     3430     3486 1
    3625     3430     3487 1
    3626     3431     3432 1
    3627     3431     3488 1
    3628     3431     3489 1
    3629     3432     3490 1
    3630     3432     3491 1
    3631     3432     3492 1
    3632     3433     3434 1
    3633     3433     3493 1
    3634     3433     3494 1
    3635     3434     3435 1
    3636     3434     3495 1
    3637     3434     3496 1
    3638     3435     3436 1
    3639     3435     3497 1
    3640     3435     3498 1
    3641     3436     3437 1
    3642     3436     3499 1
    3643     3436     3500 1
    3644     3437     3438 1
    3645     3437     3501 1
    3646     3437     3502 1
    3647     3438     3439 1
    3648     3438     3503 1
    3649     3438     3504 1
    3650     3439     3440 1
    3651     3439     3505 1
    3652     3439     3506 1
    3653     3440     3507 1
    3654     3440     3508 1
    3655     3440     3509 1
    3656     3510     3511 1
    3657     3510     3530 1
    3658     3510     3546 1
    3659     3510     3514 1
    3660     3511     3512 1
    3661     3511     3529 1
    3662     3512     3513 1
    3663     3512     3527 1
    3664     3513     3514 1
    3665     3513     3517 1
    3666     3514     3515 1
    3667     3515     3516 1
    3668     3515     3562 1
    3669     3516     3517 1
    3670     3516     3518 1
    3671     3518     3519 1
    3672     3518     3523 1
    3673     3519     3520 1
    3674     3519     3563 1
    3675     3520     3521 1
    3676     3521     3522 1
    3677     3522     3523 1
    3678     3522     3526 1
    3679     3523     3524 1
    3680     3524     3525 1
    3681     3525     3526 1
    3682     3527     3528 1
    3683     3528     3529 1
    3684     3528     3632 1
    3685     3529     3564 1
    3686     3530     3531 1
    3687     3530     3565 1
    3688     3530     3566 1
    3689     3531     3532 1
    3690     3531     3538 1
    3691     3531     3567 1
    3692     3532     3533 1
    3693     3532     3568 1
    3694     3532     3569 1
    3695     3533     3534 1
    3696     3533     3570 1
    3697     3533     3571 1
    3698     3534     3535 1
    3699     3534     3572 1
    3700     3534     3573 1
    3701     3535     3536 1
    3702     3535     3574 1
    3703     3535     3575 1
    3704     3536     3537 1
    3705     3536     3576 1
    3706     3536     3577 1
    3707     3537     3578 1
    3708     3537     3579 1
    3709     3537     3580 1
    3710     3538     3539 1
    3711     3538     3581 1
    3712     3538     3582 1
    3713     3539     3540 1
    3714     3539     3583 1
    3715     3539     3584 1
    3716     3540     3541 1
    3717     3540     3585 1
    3718     3540     3586 1
    3719     3541     3542 1
    3720     3541     3587 1
    3721     3541     3588 1
    3722     3542     3543 1
    3723     3542     3589 1
    3724     3542     3590 1
    3725     3543     3544 1
    3726     3543     3591 1
    3727     3543     3592 1
    3728     3544     3545 1
    3729     3544     3593 1
    3730     3544     3594 1
    3731     3545     3595 1
    3732     3545     3596 1
    3733     3545     3597 1
    3734     3546     3547 1
    3735     3546     3598 1
    3736     3546     3599 1
    3737     3547     3548 1
    3738     3547     3554 1
    3739     3547     3600 1
    3740     3548     3549 1
    3741     3548     3601 1
    3742     3548     3602 1
    3743     3549     3550 1
    3744     3549     3603 1
    3745     3549     3604 1
    3746     3550     3551 1
    3747     3550     3605 1
    3748     3550     3606 1
    3749     3551     3552 1
    3750     3551     3607 1
    3751     3551     3608 1
    3752     3552     3553 1
    3753     3552     3609 1
    3754     3552     3610 1
    3755     3553     3611 1
    3756     3553     3612 1
    3757     3553     3613 1
    3758     3554     3555 1
    3759     3554     3614 1
    3760     3554     3615 1
    3761     3555     3556 1
    3762     3555     3616 1
    3763     3555     3617 1
    3764     3556     3557 1
    3765     3556     3618 1
    3766     3556     3619 1
    3767     3557     3558 1
    3768     3557     3620 1
    3769     3557     3621 1
    3770     3558     3559 1
    3771     3558     3622 1
    3772     3558     3623 1
    3773     3559     3560 1
    3774     3559     3624 1
    3775     3559     3625 1
    3776     3560     3561 1
    3777     3560     3626 1
    3778     3560     3627 1
    3779     3561     3628 1
    3780     3561     3629 1
    3781     3561     3630 1
@<TRIPOS>SUBSTRUCTURE
       1 RES             1 RESIDUE    0 **** ROOT      0
