@<TRIPOS>MOLECULE
Compound
222 231 1 0 1
SMALL
NO_CHARGES
@<TRIPOS>CRYSIN
   29.8450    15.5297    29.3509    90.0000    90.0000    90.0000  1  1
@<TRIPOS>ATOM
       1 C0           9.1504    10.0726     9.8659 C0            1 Compound
       2 C1           7.7127     9.8770    10.3449 C1            1 Compound
       3 C1           7.6595     9.8664    11.6979 C1            1 Compound
       4 S2           6.1519     9.6042    12.3177 S2            1 Compound
       5 C1           5.5099     9.4837    10.7513 C1            1 Compound
       6 C1           6.4501     9.6493     9.7853 C1            1 Compound
       7 C1           8.9306    10.0659    12.2570 C1            1 Compound
       8 C1           9.8111    10.1221    11.2874 C1            1 Compound
       9 C1          11.1182    10.4577    11.8455 C1            1 Compound
      10 C1          11.0322    10.7313    13.2014 C1            1 Compound
      11 S2           9.4430    10.3559    13.9394 S2            1 Compound
      12 H3           6.1242     9.5262     8.7796 H3            1 Compound
      13 H3          12.0502    10.5774    11.3209 H3            1 Compound
      14 C0          -1.3371     8.8727    15.1929 C0            1 Compound
      15 C1          -2.7873     9.3055    14.7312 C1            1 Compound
      16 C1          -2.7126    10.4776    13.9668 C1            1 Compound
      17 S2          -4.0971    10.8533    13.1897 S2            1 Compound
      18 C1          -4.8973     9.4427    13.6278 C1            1 Compound
      19 C1          -4.0527     8.6779    14.5158 C1            1 Compound
      20 C1          -1.4782    10.4059    13.2877 C1            1 Compound
      21 C1          -0.9054     9.3160    13.7856 C1            1 Compound
      22 C1          -0.1255     8.6669    12.8359 C1            1 Compound
      23 C1           0.0741     9.3334    11.6550 C1            1 Compound
      24 S2          -0.9685    10.6957    11.6752 S2            1 Compound
      25 H3          -4.2700     7.6734    14.8471 H3            1 Compound
      26 H3           0.3388     7.7824    13.0851 H3            1 Compound
      27 C1           2.2364     8.0404    11.3506 C1            1 Compound
      28 F4           1.8988     6.9392    12.0657 F4            1 Compound
      29 C1           3.5825     8.1787    11.2062 C1            1 Compound
      30 C1           4.1104     9.2511    10.5424 C1            1 Compound
      31 C1           3.2801    10.1291     9.8425 C1            1 Compound
      32 N5           3.7212    11.1693     9.0880 N5            1 Compound
      33 S2           2.3077    11.9115     8.6542 S2            1 Compound
      34 N5           1.1456    11.0309     9.4362 N5            1 Compound
      35 C1           1.8688    10.0509    10.0320 C1            1 Compound
      36 C1           1.3476     9.0764    10.9066 C1            1 Compound
      37 H3           4.2353     7.4643    11.7017 H3            1 Compound
      38 C1          -6.8501    10.0722    12.0935 C1            1 Compound
      39 F4          -6.5567    11.3937    12.1815 F4            1 Compound
      40 C1          -7.8934     9.7355    11.2189 C1            1 Compound
      41 C1          -8.2667     8.4105    11.0282 C1            1 Compound
      42 C1          -7.5950     7.4157    11.7307 C1            1 Compound
      43 N5          -7.8751     6.0994    11.5801 N5            1 Compound
      44 S2          -6.7702     5.3912    12.5813 S2            1 Compound
      45 N5          -5.9295     6.6660    13.2139 N5            1 Compound
      46 C1          -6.5309     7.7362    12.6347 C1            1 Compound
      47 C1          -6.1281     9.0731    12.8300 C1            1 Compound
      48 H3          -8.4051    10.5183    10.6673 H3            1 Compound
      49 C0           9.5203    11.4491     9.3014 C0            1 Compound
      50 C0          10.9911    11.9124     9.0671 C0            1 Compound
      51 C0          11.8884    11.4522     7.8824 C0            1 Compound
      52 C0          12.6022    10.0761     7.5746 C0            1 Compound
      53 C0          13.3745    10.2309     6.2275 C0            1 Compound
      54 C0          14.4263    11.3515     6.1228 C0            1 Compound
      55 C0          15.0046    11.4789     4.7004 C0            1 Compound
      56 C0          13.9609    11.8994     3.6520 C0            1 Compound
      57 C0          13.4496     9.3991     8.7264 C0            1 Compound
      58 C0          12.6170     8.3444     9.5285 C0            1 Compound
      59 C0          13.3603     7.2785    10.3775 C0            1 Compound
      60 C0          14.0196     7.5993    11.7413 C0            1 Compound
      61 C0          13.1135     8.0533    12.9018 C0            1 Compound
      62 C0          11.8075     7.2655    13.0784 C0            1 Compound
      63 H6           9.0736    12.1959     9.9887 H6            1 Compound
      64 H6           9.0942    11.5136     8.3531 H6            1 Compound
      65 H6          10.8478    12.9936     8.8360 H6            1 Compound
      66 H6          11.5804    11.9828     9.9746 H6            1 Compound
      67 H6          12.7232    12.1673     7.9968 H6            1 Compound
      68 H6          11.3385    11.7313     6.9609 H6            1 Compound
      69 H6          11.9034     9.3074     7.2148 H6            1 Compound
      70 H6          13.8452     9.2603     5.9537 H6            1 Compound
      71 H6          12.5952    10.4331     5.4631 H6            1 Compound
      72 H6          13.9933    12.3433     6.3554 H6            1 Compound
      73 H6          15.2443    11.1424     6.8432 H6            1 Compound
      74 H6          15.7856    12.2686     4.7247 H6            1 Compound
      75 H6          15.4795    10.5242     4.3909 H6            1 Compound
      76 H6          13.4682    12.8502     3.9507 H6            1 Compound
      77 H6          13.1842    11.1227     3.5012 H6            1 Compound
      78 H6          14.4579    12.0547     2.6722 H6            1 Compound
      79 H6          13.9737    10.1426     9.3625 H6            1 Compound
      80 H6          14.2292     8.7842     8.2290 H6            1 Compound
      81 H6          12.1250     7.7175     8.7524 H6            1 Compound
      82 H6          11.8100     8.7895    10.1091 H6            1 Compound
      83 H6          14.1396     6.8249     9.7304 H6            1 Compound
      84 H6          12.6223     6.4728    10.5868 H6            1 Compound
      85 H6          14.8412     8.3359    11.6205 H6            1 Compound
      86 H6          14.4720     6.6419    12.0791 H6            1 Compound
      87 H6          13.6918     7.9971    13.8499 H6            1 Compound
      88 H6          12.9019     9.1062    12.7653 H6            1 Compound
      89 H6          11.2462     7.6617    13.9540 H6            1 Compound
      90 H6          12.0119     6.1892    13.2513 H6            1 Compound
      91 H6          11.1505     7.3814    12.1904 H6            1 Compound
      92 C0           9.3898     9.0262     8.7286 C0            1 Compound
      93 C0           8.4298     9.0307     7.4256 C0            1 Compound
      94 C0           7.6111    10.2935     6.8687 C0            1 Compound
      95 C0           8.1780    11.4820     6.0241 C0            1 Compound
      96 C0           8.2465    11.2074     4.5041 C0            1 Compound
      97 C0           6.8894    11.1575     3.7668 C0            1 Compound
      98 C0           7.0593    11.3154     2.2443 C0            1 Compound
      99 C0           7.8725    10.2014     1.5926 C0            1 Compound
     100 C0           7.3869    12.8385     6.3176 C0            1 Compound
     101 C0           7.7854    13.4535     7.6814 C0            1 Compound
     102 C0           7.2887    14.8372     8.1139 C0            1 Compound
     103 C0           5.9969    14.8590     8.9627 C0            1 Compound
     104 C0           6.0377    14.0346    10.2836 C0            1 Compound
     105 C0           7.2088    14.3656    11.2190 C0            1 Compound
     106 H6           9.3911     7.9931     9.1450 H6            1 Compound
     107 H6          10.3738     9.2072     8.4065 H6            1 Compound
     108 H6           8.9183     8.4842     6.5909 H6            1 Compound
     109 H6           7.6215     8.3350     7.7343 H6            1 Compound
     110 H6           7.1932    10.7953     7.7294 H6            1 Compound
     111 H6           6.7251     9.9089     6.3177 H6            1 Compound
     112 H6           9.2313    11.6504     6.2976 H6            1 Compound
     113 H6           8.8174    12.0607     4.0767 H6            1 Compound
     114 H6           8.8286    10.2811     4.3114 H6            1 Compound
     115 H6           6.3358    10.2269     4.0150 H6            1 Compound
     116 H6           6.2632    12.0205     4.0728 H6            1 Compound
     117 H6           6.0536    11.3432     1.7720 H6            1 Compound
     118 H6           7.5563    12.2894     2.0356 H6            1 Compound
     119 H6           7.3749     9.2226     1.7486 H6            1 Compound
     120 H6           8.9026    10.1686     2.0027 H6            1 Compound
     121 H6           7.9483    10.3993     0.5021 H6            1 Compound
     122 H6           6.2864    12.6889     6.2558 H6            1 Compound
     123 H6           7.6840    13.5909     5.5575 H6            1 Compound
     124 H6           8.8871    13.5708     7.6027 H6            1 Compound
     125 H6           7.5078    12.7794     8.4948 H6            1 Compound
     126 H6           7.2368    15.5154     7.2383 H6            1 Compound
     127 H6           8.0709    15.2591     8.7827 H6            1 Compound
     128 H6           5.1369    14.5147     8.3532 H6            1 Compound
     129 H6           5.8207    15.9209     9.2427 H6            1 Compound
     130 H6           5.1010    14.2385    10.8392 H6            1 Compound
     131 H6           6.0538    12.9455    10.0736 H6            1 Compound
     132 H6           7.1271    13.7554    12.1459 H6            1 Compound
     133 H6           7.2048    15.4386    11.4995 H6            1 Compound
     134 H6           8.1819    14.1211    10.7511 H6            1 Compound
     135 C0          -0.9615     9.6212    16.6095 C0            1 Compound
     136 C0           0.1512     9.1337    17.8051 C0            1 Compound
     137 C0           1.7507     9.0527    18.3578 C0            1 Compound
     138 C0           3.2204     8.3727    18.0916 C0            1 Compound
     139 C0           4.3139     9.0526    17.1323 C0            1 Compound
     140 C0           5.0716    10.3359    17.6589 C0            1 Compound
     141 C0           6.2056    10.8554    16.7464 C0            1 Compound
     142 C0           5.7373    11.5010    15.4505 C0            1 Compound
     143 C0           4.0279     8.2361    19.4224 C0            1 Compound
     144 C0           3.5506     7.3029    20.5353 C0            1 Compound
     145 C0           4.6643     7.1541    21.6055 C0            1 Compound
     146 C0           5.1659     8.4705    22.2521 C0            1 Compound
     147 C0           4.0827     9.2942    22.9633 C0            1 Compound
     148 C0           3.4375     8.5344    24.1183 C0            1 Compound
     149 H6          -1.0561    10.6875    16.4563 H6            1 Compound
     150 H6          -1.9008     9.4129    17.1714 H6            1 Compound
     151 H6          -0.2894     9.6926    18.6578 H6            1 Compound
     152 H6          -0.1707     8.0927    18.0060 H6            1 Compound
     153 H6           1.5087     8.5867    19.3322 H6            1 Compound
     154 H6           2.1231    10.0157    18.6226 H6            1 Compound
     155 H6           3.0615     7.3315    17.7338 H6            1 Compound
     156 H6           5.1248     8.3039    16.9945 H6            1 Compound
     157 H6           3.9834     9.1924    16.1237 H6            1 Compound
     158 H6           4.3792    11.1797    17.8705 H6            1 Compound
     159 H6           5.5831    10.1072    18.5995 H6            1 Compound
     160 H6           6.7651    11.6381    17.3038 H6            1 Compound
     161 H6           6.9128    10.0281    16.5233 H6            1 Compound
     162 H6           5.1107    12.3855    15.6836 H6            1 Compound
     163 H6           5.1780    10.7797    14.8303 H6            1 Compound
     164 H6           6.6179    11.8606    14.8730 H6            1 Compound
     165 H6           4.1197     9.2450    19.8696 H6            1 Compound
     166 H6           5.0390     7.8441    19.1625 H6            1 Compound
     167 H6           3.3627     6.2979    20.1034 H6            1 Compound
     168 H6           2.6184     7.6773    20.9959 H6            1 Compound
     169 H6           5.5507     6.6745    21.1327 H6            1 Compound
     170 H6           4.3120     6.4573    22.3929 H6            1 Compound
     171 H6           5.6431     9.1129    21.4808 H6            1 Compound
     172 H6           5.9662     8.2220    22.9831 H6            1 Compound
     173 H6           4.5590    10.2124    23.3722 H6            1 Compound
     174 H6           3.3019     9.6121    22.2405 H6            1 Compound
     175 H6           2.7005     9.1899    24.6257 H6            1 Compound
     176 H6           4.2120     8.2270    24.8530 H6            1 Compound
     177 H6           2.9025     7.6363    23.7482 H6            1 Compound
     178 C0          -0.5232     7.6032    15.4078 C0            1 Compound
     179 C0           1.0545     8.0548    15.4797 C0            1 Compound
     180 C0           1.5952     9.6195    15.2016 C0            1 Compound
     181 C0           1.8847    11.1023    15.9036 C0            1 Compound
     182 C0           2.4021    12.0134    14.7300 C0            1 Compound
     183 C0           1.2434    12.6308    13.9141 C0            1 Compound
     184 C0           1.6928    13.6846    12.9085 C0            1 Compound
     185 C0           2.5941    13.0994    11.8447 C0            1 Compound
     186 C0           1.0508    12.1509    16.8477 C0            1 Compound
     187 C0           1.3990    12.2731    18.3622 C0            1 Compound
     188 C0           1.0966    13.6223    19.0458 C0            1 Compound
     189 C0          -0.3391    13.7833    19.5721 C0            1 Compound
     190 C0          -0.7516    12.7671    20.6689 C0            1 Compound
     191 C0           0.1924    12.7395    21.8804 C0            1 Compound
     192 H6          -0.8565     7.0498    16.3076 H6            1 Compound
     193 H6          -0.7081     6.8372    14.6240 H6            1 Compound
     194 H6           1.5139     7.5491    16.3279 H6            1 Compound
     195 H6           1.5519     7.4214    14.7172 H6            1 Compound
     196 H6           2.5714     9.3702    14.7653 H6            1 Compound
     197 H6           1.2160     9.9344    14.2679 H6            1 Compound
     198 H6           2.7719    10.9346    16.4953 H6            1 Compound
     199 H6           2.9934    12.8539    15.1481 H6            1 Compound
     200 H6           3.0921    11.4526    14.0675 H6            1 Compound
     201 H6           0.7001    11.8400    13.3914 H6            1 Compound
     202 H6           0.5162    13.1493    14.5662 H6            1 Compound
     203 H6           0.7797    14.0815    12.4117 H6            1 Compound
     204 H6           2.2059    14.5218    13.4262 H6            1 Compound
     205 H6           2.0602    12.2531    11.3970 H6            1 Compound
     206 H6           3.5538    12.7390    12.2657 H6            1 Compound
     207 H6           2.7965    13.8635    11.0685 H6            1 Compound
     208 H6           0.0002    12.3516    16.6073 H6            1 Compound
     209 H6           1.4617    13.1450    16.5858 H6            1 Compound
     210 H6           2.5021    12.1897    18.4246 H6            1 Compound
     211 H6           0.9147    11.5198    18.9847 H6            1 Compound
     212 H6           1.3760    14.4633    18.3796 H6            1 Compound
     213 H6           1.7690    13.7170    19.9278 H6            1 Compound
     214 H6          -1.0568    13.7257    18.7254 H6            1 Compound
     215 H6          -0.4103    14.8002    20.0162 H6            1 Compound
     216 H6          -1.7647    13.0448    21.0264 H6            1 Compound
     217 H6          -0.8240    11.7408    20.2561 H6            1 Compound
     218 H6          -0.2028    12.0395    22.6467 H6            1 Compound
     219 H6           0.2817    13.7495    22.3336 H6            1 Compound
     220 H6           1.2021    12.3722    21.5985 H6            1 Compound
     221 H7          11.8674    11.1249    13.7675 H7            1 Compound
     222 H3          -9.0594     8.1669    10.3297 H3            1 Compound
@<TRIPOS>BOND
       1        2        1 1
       2        8        1 1
       3       49        1 1
       4       92        1 1
       5        3        2 1
       6        6        2 1
       7        4        3 1
       8        7        3 1
       9        5        4 1
      10        6        5 1
      11       30        5 1
      12       12        6 1
      13        8        7 1
      14       11        7 1
      15        9        8 1
      16       10        9 1
      17       13        9 1
      18       11       10 1
      19      221       10 1
      20       15       14 1
      21       21       14 1
      22      135       14 1
      23      178       14 1
      24       16       15 1
      25       19       15 1
      26       17       16 1
      27       20       16 1
      28       18       17 1
      29       19       18 1
      30       47       18 1
      31       25       19 1
      32       21       20 1
      33       24       20 1
      34       22       21 1
      35       23       22 1
      36       26       22 1
      37       24       23 1
      38       36       23 1
      39       28       27 1
      40       29       27 1
      41       36       27 1
      42       30       29 1
      43       37       29 1
      44       31       30 1
      45       32       31 1
      46       35       31 1
      47       33       32 1
      48       34       33 1
      49       35       34 1
      50       36       35 1
      51       39       38 1
      52       40       38 1
      53       47       38 1
      54       41       40 1
      55       48       40 1
      56       42       41 1
      57      222       41 1
      58       43       42 1
      59       46       42 1
      60       44       43 1
      61       45       44 1
      62       46       45 1
      63       47       46 1
      64       50       49 1
      65       63       49 1
      66       64       49 1
      67       51       50 1
      68       65       50 1
      69       66       50 1
      70       52       51 1
      71       67       51 1
      72       68       51 1
      73       53       52 1
      74       57       52 1
      75       69       52 1
      76       54       53 1
      77       70       53 1
      78       71       53 1
      79       55       54 1
      80       72       54 1
      81       73       54 1
      82       56       55 1
      83       74       55 1
      84       75       55 1
      85       76       56 1
      86       77       56 1
      87       78       56 1
      88       58       57 1
      89       79       57 1
      90       80       57 1
      91       59       58 1
      92       81       58 1
      93       82       58 1
      94       60       59 1
      95       83       59 1
      96       84       59 1
      97       61       60 1
      98       85       60 1
      99       86       60 1
     100       62       61 1
     101       87       61 1
     102       88       61 1
     103       89       62 1
     104       90       62 1
     105       91       62 1
     106       93       92 1
     107      106       92 1
     108      107       92 1
     109       94       93 1
     110      108       93 1
     111      109       93 1
     112       95       94 1
     113      110       94 1
     114      111       94 1
     115       96       95 1
     116      100       95 1
     117      112       95 1
     118       97       96 1
     119      113       96 1
     120      114       96 1
     121       98       97 1
     122      115       97 1
     123      116       97 1
     124       99       98 1
     125      117       98 1
     126      118       98 1
     127      119       99 1
     128      120       99 1
     129      121       99 1
     130      101      100 1
     131      122      100 1
     132      123      100 1
     133      102      101 1
     134      124      101 1
     135      125      101 1
     136      103      102 1
     137      126      102 1
     138      127      102 1
     139      104      103 1
     140      128      103 1
     141      129      103 1
     142      105      104 1
     143      130      104 1
     144      131      104 1
     145      132      105 1
     146      133      105 1
     147      134      105 1
     148      136      135 1
     149      149      135 1
     150      150      135 1
     151      137      136 1
     152      151      136 1
     153      152      136 1
     154      138      137 1
     155      153      137 1
     156      154      137 1
     157      139      138 1
     158      143      138 1
     159      155      138 1
     160      140      139 1
     161      156      139 1
     162      157      139 1
     163      141      140 1
     164      158      140 1
     165      159      140 1
     166      142      141 1
     167      160      141 1
     168      161      141 1
     169      162      142 1
     170      163      142 1
     171      164      142 1
     172      144      143 1
     173      165      143 1
     174      166      143 1
     175      145      144 1
     176      167      144 1
     177      168      144 1
     178      146      145 1
     179      169      145 1
     180      170      145 1
     181      147      146 1
     182      171      146 1
     183      172      146 1
     184      148      147 1
     185      173      147 1
     186      174      147 1
     187      175      148 1
     188      176      148 1
     189      177      148 1
     190      179      178 1
     191      192      178 1
     192      193      178 1
     193      180      179 1
     194      194      179 1
     195      195      179 1
     196      181      180 1
     197      196      180 1
     198      197      180 1
     199      182      181 1
     200      186      181 1
     201      198      181 1
     202      183      182 1
     203      199      182 1
     204      200      182 1
     205      184      183 1
     206      201      183 1
     207      202      183 1
     208      185      184 1
     209      203      184 1
     210      204      184 1
     211      205      185 1
     212      206      185 1
     213      207      185 1
     214      187      186 1
     215      208      186 1
     216      209      186 1
     217      188      187 1
     218      210      187 1
     219      211      187 1
     220      189      188 1
     221      212      188 1
     222      213      188 1
     223      190      189 1
     224      214      189 1
     225      215      189 1
     226      191      190 1
     227      216      190 1
     228      217      190 1
     229      218      191 1
     230      219      191 1
     231      220      191 1
@<TRIPOS>SUBSTRUCTURE
       1 Compound        1 RESIDUE    0 **** ROOT      0
