@<TRIPOS>MOLECULE
Compound
123 127 1 0 1
SMALL
NO_CHARGES
@<TRIPOS>CRYSIN
   28.0778    27.3512    10.0342    90.0000    90.0000    90.0000  1  1
@<TRIPOS>ATOM
       1 C0           0.7742     3.0319     0.1762 C0            1 Compound
       2 C1          -0.4060     2.8303    -0.4968 C1            1 Compound
       3 C1          -1.1968     1.9112     0.0774 C1            1 Compound
       4 C1          -0.6541     1.4107     1.1397 C1            1 Compound
       5 C1           0.6766     1.9982     1.3873 C1            1 Compound
       6 C1           1.4049     0.6451     1.2322 C1            1 Compound
       7 C1           0.6180    -0.4783     1.3173 C1            1 Compound
       8 S2          -1.0798    -0.1186     1.8667 S2            1 Compound
       9 C1           1.0629    -1.8791     0.9003 C1            1 Compound
      10 C1           2.4050    -2.1535     0.5237 C1            1 Compound
      11 N3           2.7910    -3.3933     0.0923 N3            1 Compound
      12 C1           1.9327    -4.4389    -0.0061 C1            1 Compound
      13 C1           0.6052    -4.2518     0.3339 C1            1 Compound
      14 C1           0.1602    -2.9737     0.8005 C1            1 Compound
      15 N3          -1.1677    -2.9141     1.0813 N3            1 Compound
      16 S2          -1.6939    -4.4463     0.7533 S2            1 Compound
      17 N3          -0.3305    -5.2285     0.2513 N3            1 Compound
      18 S2          -2.5984     1.6014    -0.7834 S2            1 Compound
      19 C1          -2.2319     2.7835    -1.9427 C1            1 Compound
      20 C1          -0.9877     3.3626    -1.6651 C1            1 Compound
      21 C0           0.9344     4.6226     0.2861 C0            1 Compound
      22 C0           0.2526     6.0801     0.7758 C0            1 Compound
      23 C0          -1.1505     6.0796     0.1143 C0            1 Compound
      24 C0          -2.2768     6.8901     0.7718 C0            1 Compound
      25 C0          -3.5376     6.7603    -0.0980 C0            1 Compound
      26 C0          -4.7788     7.3792     0.5487 C0            1 Compound
      27 C0          -5.9784     7.2388    -0.3999 C0            1 Compound
      28 C0          -7.2736     7.7062     0.2525 C0            1 Compound
      29 C0           0.8811     7.6220     0.5521 C0            1 Compound
      30 C0           0.5341     8.9849     1.2436 C0            1 Compound
      31 C0           1.1157    10.1293     0.3247 C0            1 Compound
      32 C0           1.3785    11.4976     0.9714 C0            1 Compound
      33 C0           1.8634    12.5200    -0.0924 C0            1 Compound
      34 C0           2.3207    13.8444     0.5443 C0            1 Compound
      35 C0           2.6851    14.9006    -0.5159 C0            1 Compound
      36 C0           3.1873    16.1909     0.1354 C0            1 Compound
      37 C0           2.0661     2.6739    -0.7329 C0            1 Compound
      38 C0           3.5861     2.9356    -0.2096 C0            1 Compound
      39 C0           3.9230     4.4791    -0.1019 C0            1 Compound
      40 C0           5.0710     5.3707    -0.6422 C0            1 Compound
      41 C0           4.7649     6.7952    -0.0854 C0            1 Compound
      42 C0           5.5744     7.9971    -0.5830 C0            1 Compound
      43 C0           5.1998     9.2109     0.3021 C0            1 Compound
      44 C0           5.7432    10.5397    -0.2028 C0            1 Compound
      45 C0           4.5519     2.0766    -1.0768 C0            1 Compound
      46 C0           6.0989     1.9918    -0.7467 C0            1 Compound
      47 C0           7.6807     1.8512    -0.4801 C0            1 Compound
      48 C0           9.2432     2.0046    -0.7710 C0            1 Compound
      49 C0          10.2384     1.6760     0.3677 C0            1 Compound
      50 C0          11.6726     1.6905    -0.2333 C0            1 Compound
      51 C0          12.7990     1.3635     0.7550 C0            1 Compound
      52 C0          14.1486     1.3191     0.0236 C0            1 Compound
      53 H4           2.4367     0.5937     0.9390 H4            1 Compound
      54 H5           3.1630    -1.3911     0.5488 H5            1 Compound
      55 H5           2.2814    -5.4037    -0.3651 H5            1 Compound
      56 H5          -2.8652     3.0389    -2.7806 H5            1 Compound
      57 H4          -0.5507     4.1262    -2.2915 H4            1 Compound
      58 H6           1.7978     4.6036     0.9769 H6            1 Compound
      59 H6           1.0298     4.7247    -0.8704 H6            1 Compound
      60 H6           1.0474     6.2263     0.1047 H6            1 Compound
      61 H6          -1.0402     6.3765    -0.9529 H6            1 Compound
      62 H6          -1.5431     5.0505     0.1561 H6            1 Compound
      63 H6          -2.0517     7.9597     0.8370 H6            1 Compound
      64 H6          -2.4585     6.4908     1.7938 H6            1 Compound
      65 H6          -3.3416     7.2532    -1.0776 H6            1 Compound
      66 H6          -3.7515     5.6843    -0.2804 H6            1 Compound
      67 H6          -4.6075     8.4545     0.7768 H6            1 Compound
      68 H6          -4.9866     6.8382     1.4977 H6            1 Compound
      69 H6          -5.7929     7.8358    -1.3205 H6            1 Compound
      70 H6          -6.1057     6.1729    -0.6899 H6            1 Compound
      71 H6          -7.4918     7.0850     1.1475 H6            1 Compound
      72 H6          -7.2001     8.7725     0.5513 H6            1 Compound
      73 H6          -8.1106     7.5902    -0.4687 H6            1 Compound
      74 H6           1.9990     7.6801     0.8151 H6            1 Compound
      75 H6           0.7160     7.9363    -0.5506 H6            1 Compound
      76 H6          -0.5312     9.2183     1.3702 H6            1 Compound
      77 H6           0.9995     8.9951     2.2536 H6            1 Compound
      78 H6           2.0885     9.8165    -0.0967 H6            1 Compound
      79 H6           0.4313    10.2484    -0.5467 H6            1 Compound
      80 H6           0.4589    11.8843     1.4559 H6            1 Compound
      81 H6           2.1712    11.3616     1.7387 H6            1 Compound
      82 H6           2.7222    12.1048    -0.6679 H6            1 Compound
      83 H6           1.0310    12.7135    -0.8053 H6            1 Compound
      84 H6           1.5067    14.2506     1.1812 H6            1 Compound
      85 H6           3.2106    13.6415     1.1804 H6            1 Compound
      86 H6           3.4795    14.5152    -1.1919 H6            1 Compound
      87 H6           1.7856    15.1372    -1.1257 H6            1 Compound
      88 H6           2.4173    16.6096     0.8178 H6            1 Compound
      89 H6           4.1166    15.9956     0.7122 H6            1 Compound
      90 H6           3.4128    16.9475    -0.6468 H6            1 Compound
      91 H6           2.0109     3.1499    -1.7398 H6            1 Compound
      92 H6           1.9629     1.6033    -1.0069 H6            1 Compound
      93 H6           3.6883     2.5048     0.8099 H6            1 Compound
      94 H6           3.8664     4.6953     0.9888 H6            1 Compound
      95 H6           3.1229     4.9678    -0.6653 H6            1 Compound
      96 H6           6.0707     5.0756    -0.2728 H6            1 Compound
      97 H6           5.0509     5.3652    -1.7558 H6            1 Compound
      98 H6           4.8708     6.7362     1.0210 H6            1 Compound
      99 H6           3.7138     7.0525    -0.3272 H6            1 Compound
     100 H6           6.6650     7.8145    -0.5059 H6            1 Compound
     101 H6           5.3040     8.1882    -1.6459 H6            1 Compound
     102 H6           5.5702     9.0335     1.3359 H6            1 Compound
     103 H6           4.1031     9.3120     0.3612 H6            1 Compound
     104 H6           6.8490    10.5140    -0.2652 H6            1 Compound
     105 H6           5.4396    11.3448     0.5039 H6            1 Compound
     106 H6           5.3098    10.7749    -1.1980 H6            1 Compound
     107 H6           4.4100     2.3915    -2.1430 H6            1 Compound
     108 H6           4.1475     1.0505    -0.9714 H6            1 Compound
     109 H6           6.0926     1.1789    -1.5378 H6            1 Compound
     110 H6           6.1822     3.0674    -1.0299 H6            1 Compound
     111 H6           7.7732     2.0503    -1.5816 H6            1 Compound
     112 H6           7.6986     0.8190    -0.1281 H6            1 Compound
     113 H6           9.5526     1.2698    -1.5842 H6            1 Compound
     114 H6           9.4928     3.0407    -1.1029 H6            1 Compound
     115 H6          10.1465     2.4180     1.1891 H6            1 Compound
     116 H6          10.0378     0.6595     0.7744 H6            1 Compound
     117 H6          11.7177     0.9308    -1.0457 H6            1 Compound
     118 H6          11.8755     2.6897    -0.6788 H6            1 Compound
     119 H6          12.8400     2.1369     1.5509 H6            1 Compound
     120 H6          12.6206     0.3708     1.2205 H6            1 Compound
     121 H6          14.1394     0.5306    -0.7614 H6            1 Compound
     122 H6          14.3676     2.2956    -0.4601 H6            1 Compound
     123 H6          14.9672     1.0872     0.7367 H6            1 Compound
@<TRIPOS>BOND
       1        2        1 1
       2       21        1 1
       3       37        1 1
       4        5        1 1
       5        3        2 1
       6       20        2 1
       7        4        3 1
       8       18        3 1
       9        5        4 1
      10        8        4 1
      11        6        5 1
      12        7        6 1
      13       53        6 1
      14        8        7 1
      15        9        7 1
      16       10        9 1
      17       14        9 1
      18       11       10 1
      19       54       10 1
      20       12       11 1
      21       13       12 1
      22       55       12 1
      23       14       13 1
      24       17       13 1
      25       15       14 1
      26       16       15 1
      27       17       16 1
      28       19       18 1
      29       20       19 1
      30       56       19 1
      31       57       20 1
      32       22       21 1
      33       58       21 1
      34       59       21 1
      35       23       22 1
      36       29       22 1
      37       60       22 1
      38       24       23 1
      39       61       23 1
      40       62       23 1
      41       25       24 1
      42       63       24 1
      43       64       24 1
      44       26       25 1
      45       65       25 1
      46       66       25 1
      47       27       26 1
      48       67       26 1
      49       68       26 1
      50       28       27 1
      51       69       27 1
      52       70       27 1
      53       71       28 1
      54       72       28 1
      55       73       28 1
      56       30       29 1
      57       74       29 1
      58       75       29 1
      59       31       30 1
      60       76       30 1
      61       77       30 1
      62       32       31 1
      63       78       31 1
      64       79       31 1
      65       33       32 1
      66       80       32 1
      67       81       32 1
      68       34       33 1
      69       82       33 1
      70       83       33 1
      71       35       34 1
      72       84       34 1
      73       85       34 1
      74       36       35 1
      75       86       35 1
      76       87       35 1
      77       88       36 1
      78       89       36 1
      79       90       36 1
      80       38       37 1
      81       91       37 1
      82       92       37 1
      83       39       38 1
      84       45       38 1
      85       93       38 1
      86       40       39 1
      87       94       39 1
      88       95       39 1
      89       41       40 1
      90       96       40 1
      91       97       40 1
      92       42       41 1
      93       98       41 1
      94       99       41 1
      95       43       42 1
      96      100       42 1
      97      101       42 1
      98       44       43 1
      99      102       43 1
     100      103       43 1
     101      104       44 1
     102      105       44 1
     103      106       44 1
     104       46       45 1
     105      107       45 1
     106      108       45 1
     107       47       46 1
     108      109       46 1
     109      110       46 1
     110       48       47 1
     111      111       47 1
     112      112       47 1
     113       49       48 1
     114      113       48 1
     115      114       48 1
     116       50       49 1
     117      115       49 1
     118      116       49 1
     119       51       50 1
     120      117       50 1
     121      118       50 1
     122       52       51 1
     123      119       51 1
     124      120       51 1
     125      121       52 1
     126      122       52 1
     127      123       52 1
@<TRIPOS>SUBSTRUCTURE
       1 Compound        1 RESIDUE    0 **** ROOT      0
