@<TRIPOS>MOLECULE
Polymer
4352 4501 1 0 1
SMALL
NO_CHARGES
@<TRIPOS>CRYSIN
  144.8657   235.3456    95.9285    90.0000    90.0000    90.0000  1  1
@<TRIPOS>ATOM
       1 C0           1.5692     3.3114     0.6891 C0            1 Polymer 
       2 C1           0.3466     2.8571    -0.0234 C1            1 Polymer 
       3 C1          -0.4647     2.0956     0.7132 C1            1 Polymer 
       4 C1           0.1408     1.8507     2.0478 C1            1 Polymer 
       5 C1           1.6578     2.1313     1.7357 C1            1 Polymer 
       6 C1           2.1332     0.8071     1.1782 C1            1 Polymer 
       7 C1           1.3573    -0.2596     1.4344 C1            1 Polymer 
       8 S2          -0.0391     0.1207     2.4894 S2            1 Polymer 
       9 C1           1.6038    -1.6531     0.9203 C1            1 Polymer 
      10 C1           2.8022    -1.9858     0.2430 C1            1 Polymer 
      11 N3           3.0251    -3.2476    -0.2243 N3            1 Polymer 
      12 C1           2.1243    -4.2545    -0.0811 C1            1 Polymer 
      13 C1           0.9249    -3.9963     0.5638 C1            1 Polymer 
      14 C1           0.6549    -2.6962     1.0710 C1            1 Polymer 
      15 N3          -0.5585    -2.5632     1.6713 N3            1 Polymer 
      16 S2          -1.2103    -4.0745     1.5349 S2            1 Polymer 
      17 N3          -0.0426    -4.9306     0.7440 N3            1 Polymer 
      18 S2          -1.8884     1.7563    -0.1423 S2            1 Polymer 
      19 C1          -1.3576     2.5913    -1.5459 C1            1 Polymer 
      20 C1          -0.1001     3.1249    -1.2913 C1            1 Polymer 
      21 C0           1.2960     4.6484     1.5198 C0            1 Polymer 
      22 C0           0.4947     5.8474     0.8605 C0            1 Polymer 
      23 C0           1.0722     7.2344     1.3597 C0            1 Polymer 
      24 C0           0.7502     8.4876     0.4884 C0            1 Polymer 
      25 C0           1.0850     9.8288     1.2108 C0            1 Polymer 
      26 C0           0.5651    11.0622     0.4215 C0            1 Polymer 
      27 C0           0.3812    12.3470     1.2747 C0            1 Polymer 
      28 C0           1.6182    13.1975     1.6391 C0            1 Polymer 
      29 C0           2.1537    13.9876     0.4319 C0            1 Polymer 
      30 C0           3.2421    15.0283     0.7806 C0            1 Polymer 
      31 C0           2.6892    16.2651     1.5109 C0            1 Polymer 
      32 C0           3.7682    17.3358     1.6886 C0            1 Polymer 
      33 C0          -0.9991     5.6426     1.3321 C0            1 Polymer 
      34 C0          -2.1480     6.4793     0.7656 C0            1 Polymer 
      35 C0          -3.4617     6.1857     1.5417 C0            1 Polymer 
      36 C0          -4.6277     6.8277     0.8045 C0            1 Polymer 
      37 C0          -6.0071     6.7744     1.4731 C0            1 Polymer 
      38 C0          -7.0356     7.3903     0.4995 C0            1 Polymer 
      39 C0          -8.4637     7.4175     1.0464 C0            1 Polymer 
      40 C0          -9.4160     8.0242     0.0114 C0            1 Polymer 
      41 C0           2.6819     3.4795    -0.4183 C0            1 Polymer 
      42 C0           4.1693     3.8811    -0.2166 C0            1 Polymer 
      43 C0           5.0106     2.7189     0.3726 C0            1 Polymer 
      44 C0           6.5051     2.9535     0.1745 C0            1 Polymer 
      45 C0           7.4088     1.7522     0.4414 C0            1 Polymer 
      46 C0           8.8354     2.1955     0.0890 C0            1 Polymer 
      47 C0           9.9096     1.1619     0.4054 C0            1 Polymer 
      48 C0          11.2651     1.7342    -0.0293 C0            1 Polymer 
      49 C0          12.4307     0.8288     0.3592 C0            1 Polymer 
      50 C0          13.7489     1.4484    -0.1202 C0            1 Polymer 
      51 C0          14.9487     0.6050     0.3137 C0            1 Polymer 
      52 C0          16.2521     1.2202    -0.1869 C0            1 Polymer 
      53 C0           4.3165     5.3078     0.3962 C0            1 Polymer 
      54 C0           5.6308     6.0427     0.1187 C0            1 Polymer 
      55 C0           5.4999     7.5487     0.3699 C0            1 Polymer 
      56 C0           6.8756     8.2041     0.1976 C0            1 Polymer 
      57 C0           6.8121     9.7129    -0.0257 C0            1 Polymer 
      58 C0           6.2368    10.4887     1.1618 C0            1 Polymer 
      59 C0           6.2335    12.0036     0.9040 C0            1 Polymer 
      60 C0           5.3576    12.3964    -0.2858 C0            1 Polymer 
      61 H4           3.0260     0.7497     0.5903 H4            1 Polymer 
      62 H5           3.5788    -1.2557     0.0847 H5            1 Polymer 
      63 H4           0.4319     3.7816    -1.9621 H4            1 Polymer 
      64 H6           0.7909     4.4090     2.4813 H6            1 Polymer 
      65 H6           2.2461     4.9873     1.9170 H6            1 Polymer 
      66 H6           0.6411     5.7924    -0.2389 H6            1 Polymer 
      67 H6           2.1814     7.1983     1.3761 H6            1 Polymer 
      68 H6           0.7386     7.3865     2.4084 H6            1 Polymer 
      69 H6          -0.3170     8.5234     0.2539 H6            1 Polymer 
      70 H6           1.2842     8.4158    -0.4830 H6            1 Polymer 
      71 H6           2.1699     9.9276     1.4306 H6            1 Polymer 
      72 H6           0.5341     9.7996     2.1755 H6            1 Polymer 
      73 H6          -0.4694    10.8062     0.1055 H6            1 Polymer 
      74 H6           1.1576    11.2463    -0.4987 H6            1 Polymer 
      75 H6          -0.3176    13.0247     0.7344 H6            1 Polymer 
      76 H6          -0.1361    12.0518     2.2123 H6            1 Polymer 
      77 H6           1.2694    13.9425     2.3840 H6            1 Polymer 
      78 H6           2.4125    12.5805     2.1108 H6            1 Polymer 
      79 H6           2.5533    13.2674    -0.3029 H6            1 Polymer 
      80 H6           1.3187    14.5311    -0.0519 H6            1 Polymer 
      81 H6           3.6700    15.3963    -0.1709 H6            1 Polymer 
      82 H6           4.0629    14.5582     1.3622 H6            1 Polymer 
      83 H6           2.2909    15.9865     2.5071 H6            1 Polymer 
      84 H6           1.8667    16.7099     0.9077 H6            1 Polymer 
      85 H6           4.1682    17.6588     0.7032 H6            1 Polymer 
      86 H6           4.6055    16.9487     2.3052 H6            1 Polymer 
      87 H6           3.3330    18.2261     2.1908 H6            1 Polymer 
      88 H6          -1.0125     5.7771     2.4368 H6            1 Polymer 
      89 H6          -1.2963     4.5973     1.1275 H6            1 Polymer 
      90 H6          -2.2500     6.2338    -0.3149 H6            1 Polymer 
      91 H6          -1.9853     7.5596     0.8859 H6            1 Polymer 
      92 H6          -3.6539     5.0924     1.6078 H6            1 Polymer 
      93 H6          -3.3745     6.6000     2.5702 H6            1 Polymer 
      94 H6          -4.6997     6.2463    -0.1286 H6            1 Polymer 
      95 H6          -4.3867     7.8971     0.6081 H6            1 Polymer 
      96 H6          -6.2845     5.7212     1.6929 H6            1 Polymer 
      97 H6          -5.9862     7.3545     2.4211 H6            1 Polymer 
      98 H6          -6.7314     8.4342     0.2588 H6            1 Polymer 
      99 H6          -7.0377     6.7950    -0.4404 H6            1 Polymer 
     100 H6          -8.7961     6.3832     1.2787 H6            1 Polymer 
     101 H6          -8.4997     8.0283     1.9738 H6            1 Polymer 
     102 H6          -9.1144     9.0662    -0.2326 H6            1 Polymer 
     103 H6          -9.4076     7.4227    -0.9237 H6            1 Polymer 
     104 H6         -10.4514     8.0402     0.4106 H6            1 Polymer 
     105 H6           2.3095     4.2767    -1.0953 H6            1 Polymer 
     106 H6           2.6940     2.5465    -1.0278 H6            1 Polymer 
     107 H6           4.5147     3.9855    -1.2732 H6            1 Polymer 
     108 H6           4.7587     2.5169     1.4348 H6            1 Polymer 
     109 H6           4.7768     1.8169    -0.2324 H6            1 Polymer 
     110 H6           6.8377     3.7277     0.8726 H6            1 Polymer 
     111 H6           6.6674     3.2691    -0.8817 H6            1 Polymer 
     112 H6           7.3333     1.4605     1.5112 H6            1 Polymer 
     113 H6           7.1186     0.8892    -0.1975 H6            1 Polymer 
     114 H6           9.0778     3.1190     0.6625 H6            1 Polymer 
     115 H6           8.8717     2.4377    -0.9980 H6            1 Polymer 
     116 H6           9.9090     0.9675     1.5001 H6            1 Polymer 
     117 H6           9.7084     0.2118    -0.1358 H6            1 Polymer 
     118 H6          11.2573     1.8819    -1.1329 H6            1 Polymer 
     119 H6          11.4190     2.7236     0.4579 H6            1 Polymer 
     120 H6          12.2999    -0.1750    -0.1004 H6            1 Polymer 
     121 H6          12.4483     0.7221     1.4663 H6            1 Polymer 
     122 H6          13.7305     1.5276    -1.2302 H6            1 Polymer 
     123 H6          13.8553     2.4707     0.3073 H6            1 Polymer 
     124 H6          14.9780     0.5490     1.4239 H6            1 Polymer 
     125 H6          14.8532    -0.4236    -0.0960 H6            1 Polymer 
     126 H6          16.2545     1.2634    -1.2972 H6            1 Polymer 
     127 H6          16.3754     2.2479     0.2173 H6            1 Polymer 
     128 H6          17.1091     0.5998     0.1481 H6            1 Polymer 
     129 H6           4.1827     5.3108     1.4901 H6            1 Polymer 
     130 H6           3.5329     5.9238    -0.0978 H6            1 Polymer 
     131 H6           5.9159     5.9039    -0.9487 H6            1 Polymer 
     132 H6           6.4321     5.6839     0.7764 H6            1 Polymer 
     133 H6           5.1128     7.7620     1.3897 H6            1 Polymer 
     134 H6           4.7795     7.9516    -0.3762 H6            1 Polymer 
     135 H6           7.5359     7.9442     1.0527 H6            1 Polymer 
     136 H6           7.3368     7.7853    -0.7061 H6            1 Polymer 
     137 H6           7.8427    10.0763    -0.2303 H6            1 Polymer 
     138 H6           6.1969     9.8852    -0.9308 H6            1 Polymer 
     139 H6           6.8609    10.2856     2.0589 H6            1 Polymer 
     140 H6           5.1978    10.1550     1.3726 H6            1 Polymer 
     141 H6           7.2703    12.3650     0.7303 H6            1 Polymer 
     142 H6           5.8365    12.5059     1.8122 H6            1 Polymer 
     143 H6           5.3354    13.4996    -0.3851 H6            1 Polymer 
     144 H6           5.7502    11.9974    -1.2413 H6            1 Polymer 
     145 H6           4.3332    12.0066    -0.1281 H6            1 Polymer 
     146 C0          -2.6292    10.7170    -3.2160 C0            1 Polymer 
     147 C1          -3.8709    10.5444    -4.0542 C1            1 Polymer 
     148 C1          -4.8309     9.8879    -3.4078 C1            1 Polymer 
     149 C1          -4.3344     9.3263    -2.1595 C1            1 Polymer 
     150 C1          -2.7894     9.3834    -2.4225 C1            1 Polymer 
     151 C1          -2.4642     8.0996    -3.1200 C1            1 Polymer 
     152 C1          -3.4188     7.1478    -3.0669 C1            1 Polymer 
     153 S2          -4.8993     7.6439    -2.2175 S2            1 Polymer 
     154 C1          -3.1408     5.7022    -3.2943 C1            1 Polymer 
     155 C1          -1.8723     5.3129    -3.7340 C1            1 Polymer 
     156 N3          -1.4033     4.1028    -3.3884 N3            1 Polymer 
     157 C1          -2.1161     3.2144    -2.6458 C1            1 Polymer 
     158 C1          -3.4768     3.4150    -2.4645 C1            1 Polymer 
     159 C1          -4.0077     4.6897    -2.7942 C1            1 Polymer 
     160 N3          -5.2992     4.8791    -2.4135 N3            1 Polymer 
     161 S2          -5.6985     3.4460    -1.7026 S2            1 Polymer 
     162 N3          -4.3006     2.5792    -1.7812 N3            1 Polymer 
     163 S2          -6.1149     9.5039    -4.4147 S2            1 Polymer 
     164 C1          -5.4145    10.2380    -5.7767 C1            1 Polymer 
     165 C1          -4.1594    10.7575    -5.4016 C1            1 Polymer 
     166 C0          -2.7382    11.8477    -2.0948 C0            1 Polymer 
     167 C0          -3.5269    13.1605    -2.4180 C0            1 Polymer 
     168 C0          -2.7860    14.4261    -1.8418 C0            1 Polymer 
     169 C0          -3.1623    15.7500    -2.5488 C0            1 Polymer 
     170 C0          -2.7532    17.0289    -1.7689 C0            1 Polymer 
     171 C0          -3.3304    18.2902    -2.4630 C0            1 Polymer 
     172 C0          -3.4759    19.5339    -1.5517 C0            1 Polymer 
     173 C0          -2.2258    20.3769    -1.2328 C0            1 Polymer 
     174 C0          -1.7549    21.1878    -2.4518 C0            1 Polymer 
     175 C0          -0.6477    22.2163    -2.1374 C0            1 Polymer 
     176 C0          -1.1663    23.4409    -1.3636 C0            1 Polymer 
     177 C0          -0.0764    24.5023    -1.2053 C0            1 Polymer 
     178 C0          -4.9357    12.9648    -1.7301 C0            1 Polymer 
     179 C0          -6.1243    13.8197    -2.1424 C0            1 Polymer 
     180 C0          -7.3736    13.4751    -1.2833 C0            1 Polymer 
     181 C0          -8.5893    14.0547    -1.9854 C0            1 Polymer 
     182 C0          -9.9601    13.9645    -1.3185 C0            1 Polymer 
     183 C0         -10.9804    14.5398    -2.3266 C0            1 Polymer 
     184 C0         -12.4220    14.5327    -1.8256 C0            1 Polymer 
     185 C0         -13.3490    15.1132    -2.8975 C0            1 Polymer 
     186 C0          -1.4260    10.9227    -4.2176 C0            1 Polymer 
     187 C0           0.0881    11.2199    -3.9230 C0            1 Polymer 
     188 C0           0.9101     9.9926    -3.4083 C0            1 Polymer 
     189 C0           2.4285    10.2011    -3.6325 C0            1 Polymer 
     190 C0           3.3646     8.9934    -3.4566 C0            1 Polymer 
     191 C0           4.7998     9.4645    -3.8056 C0            1 Polymer 
     192 C0           5.8979     8.4096    -3.6122 C0            1 Polymer 
     193 C0           7.2791     9.0279    -3.9316 C0            1 Polymer 
     194 C0           8.4412     8.0874    -3.5794 C0            1 Polymer 
     195 C0           9.8070     8.7558    -3.8007 C0            1 Polymer 
     196 C0          10.9334     7.8917    -3.2128 C0            1 Polymer 
     197 C0          12.3020     8.5358    -3.4154 C0            1 Polymer 
     198 C0           0.2771    12.6087    -3.2269 C0            1 Polymer 
     199 C0           1.6399    13.2859    -3.3699 C0            1 Polymer 
     200 C0           1.5322    14.7961    -3.1326 C0            1 Polymer 
     201 C0           2.9261    15.4260    -3.2040 C0            1 Polymer 
     202 C0           2.8929    16.9407    -3.4004 C0            1 Polymer 
     203 C0           2.2933    17.6983    -2.2134 C0            1 Polymer 
     204 C0           2.2644    19.2149    -2.4525 C0            1 Polymer 
     205 C0           1.3559    19.6051    -3.6192 C0            1 Polymer 
     206 H4          -1.4558     7.9450    -3.4614 H4            1 Polymer 
     207 H5          -1.1590     5.9976    -4.1626 H5            1 Polymer 
     208 H4          -3.4938    11.2717    -6.0792 H4            1 Polymer 
     209 H6          -3.1632    11.4418    -1.1472 H6            1 Polymer 
     210 H6          -1.7585    12.0326    -1.6758 H6            1 Polymer 
     211 H6          -3.5633    13.2393    -3.5255 H6            1 Polymer 
     212 H6          -1.6878    14.3385    -1.9734 H6            1 Polymer 
     213 H6          -2.9734    14.4779    -0.7473 H6            1 Polymer 
     214 H6          -4.2477    15.7998    -2.6688 H6            1 Polymer 
     215 H6          -2.7259    15.7465    -3.5678 H6            1 Polymer 
     216 H6          -1.6532    17.1131    -1.6325 H6            1 Polymer 
     217 H6          -3.2268    16.9433    -0.7670 H6            1 Polymer 
     218 H6          -4.3814    18.0432    -2.7274 H6            1 Polymer 
     219 H6          -2.7942    18.5093    -3.4086 H6            1 Polymer 
     220 H6          -4.2072    20.2246    -2.0290 H6            1 Polymer 
     221 H6          -3.9379    19.1981    -0.5991 H6            1 Polymer 
     222 H6          -2.5373    21.1037    -0.4546 H6            1 Polymer 
     223 H6          -1.4080    19.7499    -0.8178 H6            1 Polymer 
     224 H6          -1.3935    20.4801    -3.2160 H6            1 Polymer 
     225 H6          -2.6130    21.7398    -2.8864 H6            1 Polymer 
     226 H6          -0.2638    22.6012    -3.0990 H6            1 Polymer 
     227 H6           0.1985    21.7308    -1.6065 H6            1 Polymer 
     228 H6          -1.5301    23.1464    -0.3590 H6            1 Polymer 
     229 H6          -2.0078    23.9001    -1.9292 H6            1 Polymer 
     230 H6           0.2922    24.8392    -2.1979 H6            1 Polymer 
     231 H6           0.7780    24.0994    -0.6233 H6            1 Polymer 
     232 H6          -0.4901    25.3857    -0.6740 H6            1 Polymer 
     233 H6          -4.8016    13.0370    -0.6271 H6            1 Polymer 
     234 H6          -5.2865    11.9369    -1.9362 H6            1 Polymer 
     235 H6          -6.3053    13.5999    -3.2179 H6            1 Polymer 
     236 H6          -5.9567    14.8996    -2.0134 H6            1 Polymer 
     237 H6          -7.5221    12.3754    -1.2022 H6            1 Polymer 
     238 H6          -7.2475    13.8981    -0.2629 H6            1 Polymer 
     239 H6          -8.6693    13.4432    -2.9011 H6            1 Polymer 
     240 H6          -8.3909    15.1290    -2.2025 H6            1 Polymer 
     241 H6         -10.2065    12.9051    -1.0902 H6            1 Polymer 
     242 H6          -9.9659    14.5579    -0.3792 H6            1 Polymer 
     243 H6         -10.6982    15.5894    -2.5703 H6            1 Polymer 
     244 H6         -10.9371    13.9404    -3.2647 H6            1 Polymer 
     245 H6         -12.7352    13.4910    -1.5998 H6            1 Polymer 
     246 H6         -12.5012    15.1469    -0.9036 H6            1 Polymer 
     247 H6         -13.0593    16.1599    -3.1366 H6            1 Polymer 
     248 H6         -13.2928    14.5080    -3.8289 H6            1 Polymer 
     249 H6         -14.3977    15.1095    -2.5362 H6            1 Polymer 
     250 H6          -1.7296    11.8079    -4.8185 H6            1 Polymer 
     251 H6          -1.4397    10.0579    -4.9189 H6            1 Polymer 
     252 H6           0.4650    11.3816    -4.9600 H6            1 Polymer 
     253 H6           0.6680     9.7457    -2.3561 H6            1 Polymer 
     254 H6           0.6249     9.1240    -4.0401 H6            1 Polymer 
     255 H6           2.7932    10.9470    -2.9211 H6            1 Polymer 
     256 H6           2.5699    10.5625    -4.6754 H6            1 Polymer 
     257 H6           3.3171     8.6352    -2.4054 H6            1 Polymer 
     258 H6           3.0666     8.1684    -4.1386 H6            1 Polymer 
     259 H6           5.0473    10.3315    -3.1532 H6            1 Polymer 
     260 H6           4.8229     9.8089    -4.8637 H6            1 Polymer 
     261 H6           5.8764     8.0792    -2.5564 H6            1 Polymer 
     262 H6           5.7149     7.5273    -4.2620 H6            1 Polymer 
     263 H6           7.3280     9.3048    -5.0075 H6            1 Polymer 
     264 H6           7.4007     9.9531    -3.3246 H6            1 Polymer 
     265 H6           8.3764     7.1435    -4.1617 H6            1 Polymer 
     266 H6           8.3706     7.8376    -2.5119 H6            1 Polymer 
     267 H6           9.9668     8.9223    -4.8882 H6            1 Polymer 
     268 H6           9.8266     9.7402    -3.2818 H6            1 Polymer 
     269 H6          10.7648     7.7693    -2.1192 H6            1 Polymer 
     270 H6          10.9315     6.8870    -3.6867 H6            1 Polymer 
     271 H6          12.5233     8.6363    -4.4985 H6            1 Polymer 
     272 H6          12.3351     9.5390    -2.9386 H6            1 Polymer 
     273 H6          13.0837     7.8987    -2.9490 H6            1 Polymer 
     274 H6           0.0783    12.5992    -2.1485 H6            1 Polymer 
     275 H6          -0.4444    13.2851    -3.7355 H6            1 Polymer 
     276 H6           2.0248    13.1354    -4.4025 H6            1 Polymer 
     277 H6           2.3498    12.8898    -2.6275 H6            1 Polymer 
     278 H6           1.0551    15.0308    -2.1638 H6            1 Polymer 
     279 H6           0.8846    15.2144    -3.9287 H6            1 Polymer 
     280 H6           3.5391    15.1312    -2.3333 H6            1 Polymer 
     281 H6           3.4295    15.0136    -4.0806 H6            1 Polymer 
     282 H6           3.9327    17.2975    -3.5661 H6            1 Polymer 
     283 H6           2.3097    17.1376    -4.3200 H6            1 Polymer 
     284 H6           2.9160    17.4947    -1.3196 H6            1 Polymer 
     285 H6           1.2586    17.3507    -2.0073 H6            1 Polymer 
     286 H6           3.2916    19.5977    -2.6377 H6            1 Polymer 
     287 H6           1.8736    19.6973    -1.5310 H6            1 Polymer 
     288 H6           1.2981    20.7095    -3.6949 H6            1 Polymer 
     289 H6           1.7395    19.2306    -4.5879 H6            1 Polymer 
     290 H6           0.3448    19.1846    -3.4528 H6            1 Polymer 
     291 C0          -6.4353    17.9459    -6.0429 C0            1 Polymer 
     292 C1          -7.7035    17.7271    -6.8294 C1            1 Polymer 
     293 C1          -8.6147    17.0336    -6.1516 C1            1 Polymer 
     294 C1          -8.0263    16.4727    -4.9319 C1            1 Polymer 
     295 C1          -6.4882    16.6075    -5.2463 C1            1 Polymer 
     296 C1          -6.1628    15.4004    -6.0606 C1            1 Polymer 
     297 C1          -7.0950    14.4432    -6.0776 C1            1 Polymer 
     298 S2          -8.4806    14.7600    -5.0143 S2            1 Polymer 
     299 C1          -6.9104    13.1175    -6.7002 C1            1 Polymer 
     300 C1          -5.7373    12.8305    -7.4239 C1            1 Polymer 
     301 N3          -5.3916    11.5462    -7.6659 N3            1 Polymer 
     302 C1          -6.0774    10.5289    -7.0862 C1            1 Polymer 
     303 C1          -7.4235    10.7304    -6.7872 C1            1 Polymer 
     304 C1          -7.8297    12.0556    -6.5074 C1            1 Polymer 
     305 N3          -9.0684    12.1687    -5.9561 N3            1 Polymer 
     306 S2          -9.5779    10.6025    -5.8544 S2            1 Polymer 
     307 N3          -8.2901     9.7464    -6.4248 N3            1 Polymer 
     308 S2          -9.9091    16.5912    -7.1339 S2            1 Polymer 
     309 C1          -9.2678    17.3427    -8.5176 C1            1 Polymer 
     310 C1          -8.0323    17.9173    -8.1692 C1            1 Polymer 
     311 C0          -6.5581    19.0776    -4.9310 C0            1 Polymer 
     312 C0          -7.3694    20.3671    -5.2808 C0            1 Polymer 
     313 C0          -6.6477    21.6450    -4.7183 C0            1 Polymer 
     314 C0          -7.0370    22.9512    -5.4428 C0            1 Polymer 
     315 C0          -6.6332    24.2360    -4.6766 C0            1 Polymer 
     316 C0          -7.2143    25.4849    -5.3837 C0            1 Polymer 
     317 C0          -7.3591    26.7321    -4.4809 C0            1 Polymer 
     318 C0          -6.1006    27.5565    -4.1531 C0            1 Polymer 
     319 C0          -5.6054    28.3511    -5.3722 C0            1 Polymer 
     320 C0          -4.4885    29.3657    -5.0522 C0            1 Polymer 
     321 C0          -4.9989    30.5941    -4.2795 C0            1 Polymer 
     322 C0          -3.9019    31.6472    -4.1221 C0            1 Polymer 
     323 C0          -8.7837    20.1607    -4.6062 C0            1 Polymer 
     324 C0          -9.9837    20.9816    -5.0585 C0            1 Polymer 
     325 C0         -11.2385    20.6358    -4.2083 C0            1 Polymer 
     326 C0         -12.4547    21.1941    -4.9277 C0            1 Polymer 
     327 C0         -13.8273    21.1004    -4.2633 C0            1 Polymer 
     328 C0         -14.8512    21.6641    -5.2741 C0            1 Polymer 
     329 C0         -16.2920    21.6553    -4.7696 C0            1 Polymer 
     330 C0         -17.2236    22.2311    -5.8400 C0            1 Polymer 
     331 C0          -5.2898    18.1853    -7.1081 C0            1 Polymer 
     332 C0          -3.7627    18.4661    -6.8983 C0            1 Polymer 
     333 C0          -2.9067    17.2213    -6.4915 C0            1 Polymer 
     334 C0          -1.4057    17.4232    -6.8278 C0            1 Polymer 
     335 C0          -0.4745    16.2014    -6.7242 C0            1 Polymer 
     336 C0           0.9560    16.6584    -7.1177 C0            1 Polymer 
     337 C0           2.0496    15.5878    -6.9650 C0            1 Polymer 
     338 C0           3.4439    16.1996    -7.2459 C0            1 Polymer 
     339 C0           4.5916    15.2399    -6.8852 C0            1 Polymer 
     340 C0           5.9708    15.9099    -7.0020 C0            1 Polymer 
     341 C0           7.0527    15.0361    -6.3447 C0            1 Polymer 
     342 C0           8.4352    15.6752    -6.4421 C0            1 Polymer 
     343 C0          -3.5471    19.8128    -6.1476 C0            1 Polymer 
     344 C0          -2.1802    20.4710    -6.2844 C0            1 Polymer 
     345 C0          -2.2786    21.9745    -6.0214 C0            1 Polymer 
     346 C0          -0.8873    22.6024    -6.1044 C0            1 Polymer 
     347 C0          -0.9314    24.1151    -6.3035 C0            1 Polymer 
     348 C0          -1.5507    24.8695    -5.1244 C0            1 Polymer 
     349 C0          -1.5975    26.3834    -5.3721 C0            1 Polymer 
     350 C0          -2.5020    26.7555    -6.5483 C0            1 Polymer 
     351 H4          -5.2079    15.3254    -6.5437 H4            1 Polymer 
     352 H5          -5.0265    13.5867    -7.7098 H5            1 Polymer 
     353 H4          -7.3996    18.4479    -8.8652 H4            1 Polymer 
     354 H6          -6.9825    18.6747    -3.9821 H6            1 Polymer 
     355 H6          -5.5774    19.2925    -4.5275 H6            1 Polymer 
     356 H6          -7.3974    20.4306    -6.3897 H6            1 Polymer 
     357 H6          -5.5474    21.5687    -4.8481 H6            1 Polymer 
     358 H6          -6.8394    21.7066    -3.6251 H6            1 Polymer 
     359 H6          -8.1231    22.9922    -5.5588 H6            1 Polymer 
     360 H6          -6.6019    22.9383    -6.4623 H6            1 Polymer 
     361 H6          -5.5332    24.3250    -4.5422 H6            1 Polymer 
     362 H6          -7.1061    24.1579    -3.6737 H6            1 Polymer 
     363 H6          -8.2644    25.2345    -5.6479 H6            1 Polymer 
     364 H6          -6.6747    25.6955    -6.3293 H6            1 Polymer 
     365 H6          -8.0784    27.4282    -4.9683 H6            1 Polymer 
     366 H6          -7.8331    26.4042    -3.5314 H6            1 Polymer 
     367 H6          -6.4098    28.2909    -3.3816 H6            1 Polymer 
     368 H6          -5.2967    26.9191    -3.7267 H6            1 Polymer 
     369 H6          -5.2462    27.6336    -6.1291 H6            1 Polymer 
     370 H6          -6.4513    28.9131    -5.8172 H6            1 Polymer 
     371 H6          -4.0951    29.7459    -6.0120 H6            1 Polymer 
     372 H6          -3.6508    28.8708    -4.5167 H6            1 Polymer 
     373 H6          -5.3645    30.3025    -3.2746 H6            1 Polymer 
     374 H6          -5.8375    31.0589    -4.8447 H6            1 Polymer 
     375 H6          -3.5339    31.9818    -5.1159 H6            1 Polymer 
     376 H6          -3.0494    31.2375    -3.5421 H6            1 Polymer 
     377 H6          -4.3091    32.5326    -3.5892 H6            1 Polymer 
     378 H6          -8.6658    20.2611    -3.5038 H6            1 Polymer 
     379 H6          -9.1130    19.1220    -4.7894 H6            1 Polymer 
     380 H6         -10.1482    20.7330    -6.1307 H6            1 Polymer 
     381 H6          -9.8375    22.0672    -4.9553 H6            1 Polymer 
     382 H6         -11.3754    19.5358    -4.1126 H6            1 Polymer 
     383 H6         -11.1274    21.0754    -3.1932 H6            1 Polymer 
     384 H6         -12.5235    20.5733    -5.8383 H6            1 Polymer 
     385 H6         -12.2648    22.2677    -5.1554 H6            1 Polymer 
     386 H6         -14.0681    20.0413    -4.0273 H6            1 Polymer 
     387 H6         -13.8377    21.7003    -3.3282 H6            1 Polymer 
     388 H6         -14.5736    22.7136    -5.5241 H6            1 Polymer 
     389 H6         -14.8066    21.0592    -6.2084 H6            1 Polymer 
     390 H6         -16.6023    20.6137    -4.5394 H6            1 Polymer 
     391 H6         -16.3705    22.2723    -3.8493 H6            1 Polymer 
     392 H6         -16.9372    23.2781    -6.0820 H6            1 Polymer 
     393 H6         -17.1689    21.6242    -6.7702 H6            1 Polymer 
     394 H6         -18.2713    22.2260    -5.4753 H6            1 Polymer 
     395 H6          -5.6316    19.0836    -7.6676 H6            1 Polymer 
     396 H6          -5.3361    17.3422    -7.8340 H6            1 Polymer 
     397 H6          -3.4454    18.6739    -7.9469 H6            1 Polymer 
     398 H6          -3.0711    16.9486    -5.4327 H6            1 Polymer 
     399 H6          -3.2378    16.3726    -7.1266 H6            1 Polymer 
     400 H6          -0.9828    18.1636    -6.1436 H6            1 Polymer 
     401 H6          -1.3331    17.7925    -7.8745 H6            1 Polymer 
     402 H6          -0.4873    15.8261    -5.6802 H6            1 Polymer 
     403 H6          -0.8139    15.3904    -7.4037 H6            1 Polymer 
     404 H6           1.2298    17.5113    -6.4587 H6            1 Polymer 
     405 H6           0.9541    17.0218    -8.1689 H6            1 Polymer 
     406 H6           2.0248    15.2253    -5.9235 H6            1 Polymer 
     407 H6           1.8594    14.7247    -7.6376 H6            1 Polymer 
     408 H6           3.5202    16.5083    -8.3109 H6            1 Polymer 
     409 H6           3.5587    17.1053    -6.6091 H6            1 Polymer 
     410 H6           4.5526    14.3167    -7.5010 H6            1 Polymer 
     411 H6           4.4739    14.9439    -5.8373 H6            1 Polymer 
     412 H6           6.2041    16.0959    -8.0726 H6            1 Polymer 
     413 H6           5.9575    16.8847    -6.4646 H6            1 Polymer 
     414 H6           6.8076    14.9068    -5.2660 H6            1 Polymer 
     415 H6           7.0811    14.0345    -6.8235 H6            1 Polymer 
     416 H6           8.7363    15.7792    -7.5053 H6            1 Polymer 
     417 H6           8.4383    16.6758    -5.9587 H6            1 Polymer 
     418 H6           9.1775    15.0321    -5.9221 H6            1 Polymer 
     419 H6          -3.7298    19.7559    -5.0702 H6            1 Polymer 
     420 H6          -4.2747    20.5154    -6.6106 H6            1 Polymer 
     421 H6          -1.8057    20.3379    -7.3231 H6            1 Polymer 
     422 H6          -1.4740    20.0427    -5.5517 H6            1 Polymer 
     423 H6          -2.7426    22.1938    -5.0423 H6            1 Polymer 
     424 H6          -2.9354    22.4059    -6.8047 H6            1 Polymer 
     425 H6          -0.2657    22.3053    -5.2416 H6            1 Polymer 
     426 H6          -0.3903    22.1944    -6.9854 H6            1 Polymer 
     427 H6           0.1055    24.4808    -6.4650 H6            1 Polymer 
     428 H6          -1.5115    24.3018    -7.2277 H6            1 Polymer 
     429 H6          -0.9344    24.6773    -4.2241 H6            1 Polymer 
     430 H6          -2.5833    24.5111    -4.9257 H6            1 Polymer 
     431 H6          -0.5735    26.7771    -5.5513 H6            1 Polymer 
     432 H6          -2.0016    26.8650    -4.4562 H6            1 Polymer 
     433 H6          -2.5705    27.8584    -6.6316 H6            1 Polymer 
     434 H6          -2.1072    26.3799    -7.5121 H6            1 Polymer 
     435 H6          -3.5106    26.3259    -6.3877 H6            1 Polymer 
     436 C0         -10.3084    25.0540    -9.0081 C0            1 Polymer 
     437 C1         -11.5737    24.8408    -9.8010 C1            1 Polymer 
     438 C1         -12.4888    24.1480    -9.1277 C1            1 Polymer 
     439 C1         -11.9097    23.5920    -7.9025 C1            1 Polymer 
     440 C1         -10.3718    23.7135    -8.2156 C1            1 Polymer 
     441 C1         -10.0540    22.4944    -9.0182 C1            1 Polymer 
     442 C1         -10.9911    21.5388    -9.0144 C1            1 Polymer 
     443 S2         -12.3800    21.8847    -7.9640 S2            1 Polymer 
     444 C1         -10.8019    20.1896    -9.5854 C1            1 Polymer 
     445 C1          -9.6262    19.8776   -10.2911 C1            1 Polymer 
     446 N3          -9.2675    18.5856   -10.4606 N3            1 Polymer 
     447 C1          -9.9438    17.5920    -9.8286 C1            1 Polymer 
     448 C1         -11.2881    17.7948    -9.5336 C1            1 Polymer 
     449 C1         -11.7114    19.1297    -9.3366 C1            1 Polymer 
     450 N3         -12.9523    19.2603    -8.7945 N3            1 Polymer 
     451 S2         -13.4416    17.6966    -8.5967 S2            1 Polymer 
     452 N3         -12.1418    16.8241    -9.1110 N3            1 Polymer 
     453 S2         -13.7791    23.7072   -10.1145 S2            1 Polymer 
     454 C1         -13.1350    24.4643   -11.4938 C1            1 Polymer 
     455 C1         -11.8990    25.0369   -11.1410 C1            1 Polymer 
     456 C0         -10.4314    26.1809    -7.8899 C0            1 Polymer 
     457 C0         -11.2406    27.4745    -8.2289 C0            1 Polymer 
     458 C0         -10.5160    28.7475    -7.6571 C0            1 Polymer 
     459 C0         -10.9044    30.0600    -8.3708 C0            1 Polymer 
     460 C0         -10.4976    31.3408    -7.5984 C0            1 Polymer 
     461 C0         -11.0801    32.5938    -8.2981 C0            1 Polymer 
     462 C0         -11.2202    33.8393    -7.3917 C0            1 Polymer 
     463 C0          -9.9621    34.6685    -7.0736 C0            1 Polymer 
     464 C0          -9.4787    35.4652    -8.2964 C0            1 Polymer 
     465 C0          -8.3639    36.4848    -7.9838 C0            1 Polymer 
     466 C0          -8.8751    37.7144    -7.2133 C0            1 Polymer 
     467 C0          -7.7793    38.7696    -7.0596 C0            1 Polymer 
     468 C0         -12.6539    27.2655    -7.5529 C0            1 Polymer 
     469 C0         -13.8535    28.0920    -7.9953 C0            1 Polymer 
     470 C0         -15.1062    27.7422    -7.1436 C0            1 Polymer 
     471 C0         -16.3240    28.3035    -7.8578 C0            1 Polymer 
     472 C0         -17.6953    28.2060    -7.1916 C0            1 Polymer 
     473 C0         -18.7211    28.7719    -8.1992 C0            1 Polymer 
     474 C0         -20.1614    28.7588    -7.6934 C0            1 Polymer 
     475 C0         -21.0948    29.3364    -8.7613 C0            1 Polymer 
     476 C0          -9.1557    25.2931   -10.0650 C0            1 Polymer 
     477 C0          -7.6296    25.5783    -9.8453 C0            1 Polymer 
     478 C0          -6.7738    24.3369    -9.4274 C0            1 Polymer 
     479 C0          -5.2703    24.5383    -9.7578 C0            1 Polymer 
     480 C0          -4.3369    23.3189    -9.6393 C0            1 Polymer 
     481 C0          -2.9056    23.7753   -10.0310 C0            1 Polymer 
     482 C0          -1.8108    22.7069    -9.8714 C0            1 Polymer 
     483 C0          -0.4177    23.3187   -10.1584 C0            1 Polymer 
     484 C0           0.7325    22.3611    -9.7996 C0            1 Polymer 
     485 C0           2.1097    23.0367    -9.9118 C0            1 Polymer 
     486 C0           3.1920    22.1708    -9.2447 C0            1 Polymer 
     487 C0           4.5724    22.8150    -9.3380 C0            1 Polymer 
     488 C0          -7.4215    26.9287    -9.0979 C0            1 Polymer 
     489 C0          -6.0525    27.5855    -9.2164 C0            1 Polymer 
     490 C0          -6.1526    29.0884    -8.9503 C0            1 Polymer 
     491 C0          -4.7600    29.7156    -9.0189 C0            1 Polymer 
     492 C0          -4.8010    31.2290    -9.2140 C0            1 Polymer 
     493 C0          -5.4225    31.9816    -8.0350 C0            1 Polymer 
     494 C0          -5.4673    33.4960    -8.2804 C0            1 Polymer 
     495 C0          -6.3720    33.8708    -9.4555 C0            1 Polymer 
     496 H4          -9.0949    22.4036    -9.4929 H4            1 Polymer 
     497 H5          -8.9201    20.6250   -10.6116 H5            1 Polymer 
     498 H4         -11.2648    25.5709   -11.8331 H4            1 Polymer 
     499 H6         -10.8557    25.7734    -6.9429 H6            1 Polymer 
     500 H6          -9.4525    26.3897    -7.4809 H6            1 Polymer 
     501 H6         -11.2703    27.5457    -9.3373 H6            1 Polymer 
     502 H6          -9.4161    28.6704    -7.7890 H6            1 Polymer 
     503 H6         -10.7059    28.8011    -6.5632 H6            1 Polymer 
     504 H6         -11.9907    30.1030    -8.4847 H6            1 Polymer 
     505 H6         -10.4706    30.0525    -9.3905 H6            1 Polymer 
     506 H6          -9.3972    31.4284    -7.4666 H6            1 Polymer 
     507 H6         -10.9679    31.2582    -6.5947 H6            1 Polymer 
     508 H6         -12.1318    32.3451    -8.5579 H6            1 Polymer 
     509 H6         -10.5454    32.8069    -9.2458 H6            1 Polymer 
     510 H6         -11.9451    34.5342    -7.8725 H6            1 Polymer 
     511 H6         -11.6860    33.5092    -6.4389 H6            1 Polymer 
     512 H6         -10.2680    35.4019    -6.2997 H6            1 Polymer 
     513 H6          -9.1526    34.0342    -6.6533 H6            1 Polymer 
     514 H6          -9.1211    34.7489    -9.0551 H6            1 Polymer 
     515 H6         -10.3299    36.0232    -8.7368 H6            1 Polymer 
     516 H6          -7.9755    36.8634    -8.9462 H6            1 Polymer 
     517 H6          -7.5227    35.9942    -7.4499 H6            1 Polymer 
     518 H6          -9.2390    37.4249    -6.2073 H6            1 Polymer 
     519 H6          -9.7150    38.1764    -7.7788 H6            1 Polymer 
     520 H6          -7.4117    39.1019    -8.0542 H6            1 Polymer 
     521 H6          -6.9260    38.3628    -6.4787 H6            1 Polymer 
     522 H6          -8.1874    39.6561    -6.5293 H6            1 Polymer 
     523 H6         -12.5333    27.3571    -6.4500 H6            1 Polymer 
     524 H6         -12.9854    26.2287    -7.7441 H6            1 Polymer 
     525 H6         -14.0213    27.8511    -9.0687 H6            1 Polymer 
     526 H6         -13.7055    29.1767    -7.8851 H6            1 Polymer 
     527 H6         -15.2430    26.6418    -7.0527 H6            1 Polymer 
     528 H6         -14.9926    28.1768    -6.1266 H6            1 Polymer 
     529 H6         -16.3942    27.6860    -8.7704 H6            1 Polymer 
     530 H6         -16.1349    29.3780    -8.0820 H6            1 Polymer 
     531 H6         -17.9345    27.1458    -6.9590 H6            1 Polymer 
     532 H6         -17.7051    28.8026    -6.2543 H6            1 Polymer 
     533 H6         -18.4453    29.8226    -8.4458 H6            1 Polymer 
     534 H6         -18.6766    28.1703    -9.1356 H6            1 Polymer 
     535 H6         -20.4696    27.7159    -7.4665 H6            1 Polymer 
     536 H6         -20.2402    29.3726    -6.7710 H6            1 Polymer 
     537 H6         -20.8105    30.3847    -9.0001 H6            1 Polymer 
     538 H6         -21.0397    28.7325    -9.6935 H6            1 Polymer 
     539 H6         -22.1422    29.3282    -8.3959 H6            1 Polymer 
     540 H6          -9.4947    26.1903   -10.6277 H6            1 Polymer 
     541 H6          -9.1970    24.4481   -10.7890 H6            1 Polymer 
     542 H6          -7.3051    25.7831   -10.8923 H6            1 Polymer 
     543 H6          -6.9426    24.0711    -8.3677 H6            1 Polymer 
     544 H6          -7.1023    23.4839   -10.0582 H6            1 Polymer 
     545 H6          -4.8509    25.2848    -9.0785 H6            1 Polymer 
     546 H6          -5.1928    24.9005   -10.8067 H6            1 Polymer 
     547 H6          -4.3520    22.9514    -8.5919 H6            1 Polymer 
     548 H6          -4.6718    22.5020   -10.3140 H6            1 Polymer 
     549 H6          -2.6342    24.6320    -9.3756 H6            1 Polymer 
     550 H6          -2.9057    24.1325   -11.0843 H6            1 Polymer 
     551 H6          -1.8339    22.3519    -8.8269 H6            1 Polymer 
     552 H6          -2.0005    21.8395   -10.5386 H6            1 Polymer 
     553 H6          -0.3442    23.6252   -11.2243 H6            1 Polymer 
     554 H6          -0.3032    24.2261    -9.5240 H6            1 Polymer 
     555 H6           0.6973    21.4388   -10.4168 H6            1 Polymer 
     556 H6           0.6142    22.0601    -8.7540 H6            1 Polymer 
     557 H6           2.3473    23.2204   -10.9818 H6            1 Polymer 
     558 H6           2.0901    24.0132    -9.3777 H6            1 Polymer 
     559 H6           2.9418    22.0467    -8.1664 H6            1 Polymer 
     560 H6           3.2269    21.1665    -9.7174 H6            1 Polymer 
     561 H6           4.8792    22.9134   -10.4001 H6            1 Polymer 
     562 H6           4.5687    23.8187    -8.8611 H6            1 Polymer 
     563 H6           5.3142    22.1784    -8.8096 H6            1 Polymer 
     564 H6          -7.6157    26.8769    -8.0232 H6            1 Polymer 
     565 H6          -8.1432    27.6305    -9.5715 H6            1 Polymer 
     566 H6          -5.6655    27.4534   -10.2506 H6            1 Polymer 
     567 H6          -5.3566    27.1556    -8.4744 H6            1 Polymer 
     568 H6          -6.6268    29.3050    -7.9756 H6            1 Polymer 
     569 H6          -6.8019    29.5227    -9.7376 H6            1 Polymer 
     570 H6          -4.1466    29.4149    -8.1516 H6            1 Polymer 
     571 H6          -4.2555    29.3105    -9.8974 H6            1 Polymer 
     572 H6          -3.7629    31.5935    -9.3704 H6            1 Polymer 
     573 H6          -5.3767    31.4190   -10.1402 H6            1 Polymer 
     574 H6          -4.8075    31.7881    -7.1340 H6            1 Polymer 
     575 H6          -6.4556    31.6234    -7.8384 H6            1 Polymer 
     576 H6          -4.4428    33.8886    -8.4594 H6            1 Polymer 
     577 H6          -5.8704    33.9771    -7.3637 H6            1 Polymer 
     578 H6          -6.4380    34.9739    -9.5382 H6            1 Polymer 
     579 H6          -5.9793    33.4949   -10.4200 H6            1 Polymer 
     580 H6          -7.3812    33.4434    -9.2936 H6            1 Polymer 
     581 C0         -14.1789    32.1684   -11.9244 C0            1 Polymer 
     582 C1         -15.4442    31.9578   -12.7175 C1            1 Polymer 
     583 C1         -16.3606    31.2668   -12.0439 C1            1 Polymer 
     584 C1         -15.7822    30.7041   -10.8215 C1            1 Polymer 
     585 C1         -14.2439    30.8266   -11.1338 C1            1 Polymer 
     586 C1         -13.9261    29.6116   -11.9420 C1            1 Polymer 
     587 C1         -14.8634    28.6567   -11.9472 C1            1 Polymer 
     588 S2         -16.2532    28.9958   -10.8955 S2            1 Polymer 
     589 C1         -14.6731    27.3130   -12.5310 C1            1 Polymer 
     590 C1         -13.4981    27.0094   -13.2422 C1            1 Polymer 
     591 N3         -13.1384    25.7199   -13.4270 N3            1 Polymer 
     592 C1         -13.8118    24.7191   -12.8037 C1            1 Polymer 
     593 C1         -15.1569    24.9175   -12.5058 C1            1 Polymer 
     594 C1         -15.5810    26.2497   -12.2928 C1            1 Polymer 
     595 N3         -16.8208    26.3726   -11.7469 N3            1 Polymer 
     596 S2         -17.3090    24.8070   -11.5673 S2            1 Polymer 
     597 N3         -16.0092    23.9411   -12.0933 N3            1 Polymer 
     598 S2         -17.6537    30.8327   -13.0290 S2            1 Polymer 
     599 C1         -17.0083    31.5879   -14.4086 C1            1 Polymer 
     600 C1         -15.7696    32.1549   -14.0575 C1            1 Polymer 
     601 C0         -14.3011    33.2956   -10.8062 C0            1 Polymer 
     602 C0         -15.1093    34.5898   -11.1470 C0            1 Polymer 
     603 C0         -14.3859    35.8637   -10.5761 C0            1 Polymer 
     604 C0         -14.7729    37.1742   -11.2946 C0            1 Polymer 
     605 C0         -14.3717    38.4573   -10.5231 C0            1 Polymer 
     606 C0         -14.9523    39.7079   -11.2285 C0            1 Polymer 
     607 C0         -15.0985    40.9553   -10.3257 C0            1 Polymer 
     608 C0         -13.8425    41.7852   -10.0017 C0            1 Polymer 
     609 C0         -13.3519    42.5791   -11.2234 C0            1 Polymer 
     610 C0         -12.2372    43.5977   -10.9075 C0            1 Polymer 
     611 C0         -12.7502    44.8290   -10.1410 C0            1 Polymer 
     612 C0         -11.6540    45.8834    -9.9851 C0            1 Polymer 
     613 C0         -16.5236    34.3819   -10.4727 C0            1 Polymer 
     614 C0         -17.7228    35.2086   -10.9161 C0            1 Polymer 
     615 C0         -18.9762    34.8576   -10.0653 C0            1 Polymer 
     616 C0         -20.1942    35.4185   -10.7792 C0            1 Polymer 
     617 C0         -21.5664    35.3195   -10.1151 C0            1 Polymer 
     618 C0         -22.5914    35.8871   -11.1228 C0            1 Polymer 
     619 C0         -24.0323    35.8712   -10.6186 C0            1 Polymer 
     620 C0         -24.9657    36.4513   -11.6852 C0            1 Polymer 
     621 C0         -13.0265    32.4074   -12.9813 C0            1 Polymer 
     622 C0         -11.5007    32.6900   -12.7605 C0            1 Polymer 
     623 C0         -10.6475    31.4469   -12.3425 C0            1 Polymer 
     624 C0          -9.1431    31.6497   -12.6659 C0            1 Polymer 
     625 C0          -8.2087    30.4307   -12.5545 C0            1 Polymer 
     626 C0          -6.7775    30.8915   -12.9433 C0            1 Polymer 
     627 C0          -5.6823    29.8229   -12.7895 C0            1 Polymer 
     628 C0          -4.2886    30.4333   -13.0764 C0            1 Polymer 
     629 C0          -3.1417    29.4711   -12.7189 C0            1 Polymer 
     630 C0          -1.7609    30.1383   -12.8349 C0            1 Polymer 
     631 C0          -0.6830    29.2652   -12.1698 C0            1 Polymer 
     632 C0           0.7023    29.8979   -12.2688 C0            1 Polymer 
     633 C0         -11.2908    34.0407   -12.0134 C0            1 Polymer 
     634 C0          -9.9222    34.6981   -12.1383 C0            1 Polymer 
     635 C0         -10.0212    36.2015   -11.8750 C0            1 Polymer 
     636 C0          -8.6289    36.8290   -11.9517 C0            1 Polymer 
     637 C0          -8.6719    38.3421   -12.1499 C0            1 Polymer 
     638 C0          -9.2879    39.0964   -10.9692 C0            1 Polymer 
     639 C0          -9.3394    40.6098   -11.2185 C0            1 Polymer 
     640 C0         -10.2541    40.9778   -12.3880 C0            1 Polymer 
     641 H4         -12.9669    29.5237   -12.4163 H4            1 Polymer 
     642 H5         -12.7938    27.7610   -13.5564 H5            1 Polymer 
     643 H4         -15.1342    32.6863   -14.7508 H4            1 Polymer 
     644 H6         -14.7271    32.8882    -9.8599 H6            1 Polymer 
     645 H6         -13.3220    33.5043   -10.3965 H6            1 Polymer 
     646 H6         -15.1374    34.6601   -12.2555 H6            1 Polymer 
     647 H6         -13.2856    35.7864   -10.7044 H6            1 Polymer 
     648 H6         -14.5792    35.9201    -9.4828 H6            1 Polymer 
     649 H6         -15.8588    37.2152   -11.4139 H6            1 Polymer 
     650 H6         -14.3345    37.1652   -12.3125 H6            1 Polymer 
     651 H6         -13.2721    38.5468   -10.3860 H6            1 Polymer 
     652 H6         -14.8469    38.3764    -9.5215 H6            1 Polymer 
     653 H6         -16.0023    39.4572   -11.4932 H6            1 Polymer 
     654 H6         -14.4128    39.9195   -12.1738 H6            1 Polymer 
     655 H6         -15.8208    41.6490   -10.8123 H6            1 Polymer 
     656 H6         -15.5699    40.6270    -9.3750 H6            1 Polymer 
     657 H6         -14.1528    42.5205    -9.2312 H6            1 Polymer 
     658 H6         -13.0356    41.1516    -9.5753 H6            1 Polymer 
     659 H6         -12.9916    41.8611   -11.9790 H6            1 Polymer 
     660 H6         -14.2003    43.1372   -11.6690 H6            1 Polymer 
     661 H6         -11.8444    43.9743   -11.8688 H6            1 Polymer 
     662 H6         -11.3988    43.1068   -10.3693 H6            1 Polymer 
     663 H6         -13.1184    44.5415    -9.1359 H6            1 Polymer 
     664 H6         -13.5875    45.2909   -10.7105 H6            1 Polymer 
     665 H6         -11.2821    46.2132   -10.9790 H6            1 Polymer 
     666 H6         -10.8035    45.4769    -9.3999 H6            1 Polymer 
     667 H6         -12.0632    46.7714    -9.4582 H6            1 Polymer 
     668 H6         -16.4041    34.4738    -9.3697 H6            1 Polymer 
     669 H6         -16.8553    33.3454   -10.6637 H6            1 Polymer 
     670 H6         -17.8896    34.9680   -11.9898 H6            1 Polymer 
     671 H6         -17.5747    36.2934   -10.8055 H6            1 Polymer 
     672 H6         -19.1124    33.7570    -9.9755 H6            1 Polymer 
     673 H6         -18.8634    35.2916    -9.0480 H6            1 Polymer 
     674 H6         -20.2635    34.8009   -11.6919 H6            1 Polymer 
     675 H6         -20.0056    36.4934   -11.0014 H6            1 Polymer 
     676 H6         -21.8054    34.2587    -9.8850 H6            1 Polymer 
     677 H6         -21.5775    35.9144    -9.1768 H6            1 Polymer 
     678 H6         -22.3163    36.9387   -11.3664 H6            1 Polymer 
     679 H6         -22.5455    35.2881   -12.0609 H6            1 Polymer 
     680 H6         -24.3396    34.8273   -10.3952 H6            1 Polymer 
     681 H6         -24.1125    36.4820    -9.6943 H6            1 Polymer 
     682 H6         -24.6826    37.5007   -11.9203 H6            1 Polymer 
     683 H6         -24.9093    35.8506   -12.6194 H6            1 Polymer 
     684 H6         -26.0133    36.4405   -11.3203 H6            1 Polymer 
     685 H6         -13.3643    33.3054   -13.5435 H6            1 Polymer 
     686 H6         -13.0686    31.5633   -13.7065 H6            1 Polymer 
     687 H6         -11.1753    32.8945   -13.8072 H6            1 Polymer 
     688 H6         -10.8215    31.1781   -11.2847 H6            1 Polymer 
     689 H6         -10.9740    30.5959   -12.9771 H6            1 Polymer 
     690 H6          -8.7267    32.3910   -11.9790 H6            1 Polymer 
     691 H6          -9.0632    32.0183   -13.7122 H6            1 Polymer 
     692 H6          -8.2243    30.0560   -11.5098 H6            1 Polymer 
     693 H6          -8.5424    29.6182   -13.2349 H6            1 Polymer 
     694 H6          -6.5066    31.7450   -12.2836 H6            1 Polymer 
     695 H6          -6.7781    31.2544   -13.9947 H6            1 Polymer 
     696 H6          -5.7035    29.4646   -11.7464 H6            1 Polymer 
     697 H6          -5.8734    28.9578   -13.4592 H6            1 Polymer 
     698 H6          -4.2151    30.7407   -14.1420 H6            1 Polymer 
     699 H6          -4.1711    31.3396   -12.4411 H6            1 Polymer 
     700 H6          -3.1828    28.5484   -13.3353 H6            1 Polymer 
     701 H6          -3.2601    29.1718   -11.6726 H6            1 Polymer 
     702 H6          -1.5247    30.3192   -13.9057 H6            1 Polymer 
     703 H6          -1.7729    31.1154   -12.3018 H6            1 Polymer 
     704 H6          -0.9308    29.1446   -11.0906 H6            1 Polymer 
     705 H6          -0.6574    28.2599   -12.6411 H6            1 Polymer 
     706 H6           1.0065    29.9916   -13.3320 H6            1 Polymer 
     707 H6           0.7086    30.9024   -11.7936 H6            1 Polymer 
     708 H6           1.4405    29.2558   -11.7416 H6            1 Polymer 
     709 H6         -11.4828    33.9895   -10.9381 H6            1 Polymer 
     710 H6         -12.0138    34.7421   -12.4853 H6            1 Polymer 
     711 H6          -9.5393    34.5643   -13.1738 H6            1 Polymer 
     712 H6          -9.2227    34.2706   -11.3987 H6            1 Polymer 
     713 H6         -10.4906    36.4200   -10.8984 H6            1 Polymer 
     714 H6         -10.6740    36.6339   -12.6605 H6            1 Polymer 
     715 H6          -8.0108    36.5306   -11.0868 H6            1 Polymer 
     716 H6          -8.1288    36.4222   -12.8318 H6            1 Polymer 
     717 H6          -7.6350    38.7074   -12.3127 H6            1 Polymer 
     718 H6          -9.2525    38.5293   -13.0736 H6            1 Polymer 
     719 H6          -8.6666    38.9072   -10.0719 H6            1 Polymer 
     720 H6         -10.3187    38.7359   -10.7649 H6            1 Polymer 
     721 H6          -8.3177    41.0056   -11.4060 H6            1 Polymer 
     722 H6          -9.7377    41.0921   -10.3004 H6            1 Polymer 
     723 H6         -10.3256    42.0804   -12.4729 H6            1 Polymer 
     724 H6          -9.8670    40.6012   -13.3544 H6            1 Polymer 
     725 H6         -11.2602    40.5461   -12.2176 H6            1 Polymer 
     726 C0         -18.0416    39.2923   -14.8399 C0            1 Polymer 
     727 C1         -19.3079    39.0804   -15.6323 C1            1 Polymer 
     728 C1         -20.2253    38.3935   -14.9564 C1            1 Polymer 
     729 C1         -19.6456    37.8335   -13.7331 C1            1 Polymer 
     730 C1         -18.1070    37.9525   -14.0466 C1            1 Polymer 
     731 C1         -17.7924    36.7370   -14.8543 C1            1 Polymer 
     732 C1         -18.7328    35.7850   -14.8588 C1            1 Polymer 
     733 S2         -20.1187    36.1265   -13.8040 S2            1 Polymer 
     734 C1         -18.5476    34.4421   -15.4436 C1            1 Polymer 
     735 C1         -17.3730    34.1375   -16.1556 C1            1 Polymer 
     736 N3         -17.0133    32.8485   -16.3388 N3            1 Polymer 
     737 C1         -17.6872    31.8485   -15.7155 C1            1 Polymer 
     738 C1         -19.0315    32.0475   -15.4151 C1            1 Polymer 
     739 C1         -19.4562    33.3794   -15.2028 C1            1 Polymer 
     740 N3         -20.6952    33.5022   -14.6537 N3            1 Polymer 
     741 S2         -21.1809    31.9357   -14.4708 S2            1 Polymer 
     742 N3         -19.8818    31.0710   -14.9996 N3            1 Polymer 
     743 S2         -21.5171    37.9514   -15.9423 S2            1 Polymer 
     744 C1         -20.8671    38.6942   -17.3269 C1            1 Polymer 
     745 C1         -19.6311    39.2684   -16.9742 C1            1 Polymer 
     746 C0         -18.1619    40.4194   -13.7239 C0            1 Polymer 
     747 C0         -18.9760    41.7116   -14.0671 C0            1 Polymer 
     748 C0         -18.2575    42.9860   -13.4985 C0            1 Polymer 
     749 C0         -18.6520    44.3001   -14.2089 C0            1 Polymer 
     750 C0         -18.2466    45.5795   -13.4327 C0            1 Polymer 
     751 C0         -18.8264    46.8314   -14.1357 C0            1 Polymer 
     752 C0         -18.9722    48.0789   -13.2332 C0            1 Polymer 
     753 C0         -17.7151    48.9062   -12.9072 C0            1 Polymer 
     754 C0         -17.2176    49.6948   -14.1294 C0            1 Polymer 
     755 C0         -16.1025    50.7123   -13.8122 C0            1 Polymer 
     756 C0         -16.6162    51.9449   -13.0483 C0            1 Polymer 
     757 C0         -15.5206    53.0001   -12.8943 C0            1 Polymer 
     758 C0         -20.3890    41.5051   -13.3898 C0            1 Polymer 
     759 C0         -21.5896    42.3247   -13.8428 C0            1 Polymer 
     760 C0         -22.8440    41.9754   -12.9950 C0            1 Polymer 
     761 C0         -24.0596    42.5330   -13.7152 C0            1 Polymer 
     762 C0         -25.4320    42.4366   -13.0514 C0            1 Polymer 
     763 C0         -26.4563    43.0008   -14.0612 C0            1 Polymer 
     764 C0         -27.8968    42.9906   -13.5558 C0            1 Polymer 
     765 C0         -28.8293    43.5678   -14.6247 C0            1 Polymer 
     766 C0         -16.8909    39.5301   -15.8990 C0            1 Polymer 
     767 C0         -15.3643    39.8118   -15.6818 C0            1 Polymer 
     768 C0         -14.5126    38.5683   -15.2631 C0            1 Polymer 
     769 C0         -13.0093    38.7666   -15.5935 C0            1 Polymer 
     770 C0         -12.0780    37.5454   -15.4797 C0            1 Polymer 
     771 C0         -10.6471    38.0001   -15.8757 C0            1 Polymer 
     772 C0          -9.5540    36.9297   -15.7194 C0            1 Polymer 
     773 C0          -8.1600    37.5366   -16.0119 C0            1 Polymer 
     774 C0          -7.0129    36.5755   -15.6526 C0            1 Polymer 
     775 C0          -5.6325    37.2425   -15.7747 C0            1 Polymer 
     776 C0          -4.5524    36.3728   -15.1090 C0            1 Polymer 
     777 C0          -3.1682    37.0070   -15.2132 C0            1 Polymer 
     778 C0         -15.1509    41.1637   -14.9381 C0            1 Polymer 
     779 C0         -13.7813    41.8189   -15.0660 C0            1 Polymer 
     780 C0         -13.8797    43.3228   -14.8050 C0            1 Polymer 
     781 C0         -12.4880    43.9519   -14.8789 C0            1 Polymer 
     782 C0         -12.5333    45.4655   -15.0738 C0            1 Polymer 
     783 C0         -13.1625    46.2160   -13.8973 C0            1 Polymer 
     784 C0         -13.2134    47.7302   -14.1420 C0            1 Polymer 
     785 C0         -14.1118    48.1019   -15.3232 C0            1 Polymer 
     786 H4         -16.8340    36.6476   -15.3297 H4            1 Polymer 
     787 H5         -16.6665    34.8868   -16.4700 H5            1 Polymer 
     788 H4         -18.9957    39.7974   -17.6692 H4            1 Polymer 
     789 H6         -18.5844    40.0161   -12.7751 H6            1 Polymer 
     790 H6         -17.1805    40.6324   -13.3235 H6            1 Polymer 
     791 H6         -19.0034    41.7838   -15.1744 H6            1 Polymer 
     792 H6         -17.1547    42.9127   -13.6258 H6            1 Polymer 
     793 H6         -18.4553    43.0279   -12.4078 H6            1 Polymer 
     794 H6         -19.7410    44.3519   -14.3217 H6            1 Polymer 
     795 H6         -18.2114    44.2973   -15.2271 H6            1 Polymer 
     796 H6         -17.1465    45.6710   -13.2951 H6            1 Polymer 
     797 H6         -18.7197    45.4972   -12.4299 H6            1 Polymer 
     798 H6         -19.8765    46.5825   -14.4009 H6            1 Polymer 
     799 H6         -18.2869    47.0437   -15.0810 H6            1 Polymer 
     800 H6         -19.6923    48.7740   -13.7217 H6            1 Polymer 
     801 H6         -19.4461    47.7516   -12.2835 H6            1 Polymer 
     802 H6         -18.0264    49.6441   -12.1397 H6            1 Polymer 
     803 H6         -16.9116    48.2714   -12.4764 H6            1 Polymer 
     804 H6         -16.8552    48.9734   -14.8811 H6            1 Polymer 
     805 H6         -18.0628    50.2534   -14.5800 H6            1 Polymer 
     806 H6         -15.7066    51.0871   -14.7730 H6            1 Polymer 
     807 H6         -15.2658    50.2212   -13.2715 H6            1 Polymer 
     808 H6         -16.9845    51.6592   -12.0427 H6            1 Polymer 
     809 H6         -17.4536    52.4056   -13.6187 H6            1 Polymer 
     810 H6         -15.1497    53.3287   -13.8891 H6            1 Polymer 
     811 H6         -14.6695    52.5949   -12.3091 H6            1 Polymer 
     812 H6         -15.9301    53.8886   -12.3685 H6            1 Polymer 
     813 H6         -20.2719    41.6016   -12.2863 H6            1 Polymer 
     814 H6         -20.7174    40.4682   -13.5766 H6            1 Polymer 
     815 H6         -21.7513    42.0784   -14.9163 H6            1 Polymer 
     816 H6         -21.4472    43.4095   -13.7349 H6            1 Polymer 
     817 H6         -22.9785    40.8751   -12.9015 H6            1 Polymer 
     818 H6         -22.7340    42.4139   -11.9795 H6            1 Polymer 
     819 H6         -24.1262    41.9131   -14.6265 H6            1 Polymer 
     820 H6         -23.8707    43.6071   -13.9416 H6            1 Polymer 
     821 H6         -25.6714    41.3769   -12.8169 H6            1 Polymer 
     822 H6         -25.4430    43.0353   -12.1154 H6            1 Polymer 
     823 H6         -26.1795    44.0507   -14.3100 H6            1 Polymer 
     824 H6         -26.4119    42.3970   -14.9962 H6            1 Polymer 
     825 H6         -28.2066    41.9486   -13.3269 H6            1 Polymer 
     826 H6         -27.9750    43.6062   -12.6346 H6            1 Polymer 
     827 H6         -28.5433    44.6153   -14.8652 H6            1 Polymer 
     828 H6         -28.7750    42.9623   -15.5559 H6            1 Polymer 
     829 H6         -29.8767    43.5619   -14.2593 H6            1 Polymer 
     830 H6         -17.2297    40.4279   -16.4614 H6            1 Polymer 
     831 H6         -16.9349    38.6855   -16.6229 H6            1 Polymer 
     832 H6         -15.0414    40.0138   -16.7296 H6            1 Polymer 
     833 H6         -14.6829    38.3031   -14.2037 H6            1 Polymer 
     834 H6         -14.8430    37.7159   -15.8938 H6            1 Polymer 
     835 H6         -12.5884    39.5109   -14.9124 H6            1 Polymer 
     836 H6         -12.9327    39.1298   -16.6420 H6            1 Polymer 
     837 H6         -12.0909    37.1760   -14.4331 H6            1 Polymer 
     838 H6         -12.4165    36.7304   -16.1548 H6            1 Polymer 
     839 H6         -10.3720    38.8563   -15.2213 H6            1 Polymer 
     840 H6         -10.6500    38.3575   -16.9289 H6            1 Polymer 
     841 H6          -9.5740    36.5762   -14.6746 H6            1 Polymer 
     842 H6          -9.7483    36.0619   -16.3847 H6            1 Polymer 
     843 H6          -8.0885    37.8393   -17.0790 H6            1 Polymer 
     844 H6          -8.0403    38.4456   -15.3808 H6            1 Polymer 
     845 H6          -7.0555    35.6502   -16.2649 H6            1 Polymer 
     846 H6          -7.1287    36.2809   -14.6046 H6            1 Polymer 
     847 H6          -5.3991    37.4195   -16.8468 H6            1 Polymer 
     848 H6          -5.6437    38.2217   -15.2453 H6            1 Polymer 
     849 H6          -4.7976    36.2557   -14.0288 H6            1 Polymer 
     850 H6          -4.5268    35.3660   -15.5769 H6            1 Polymer 
     851 H6          -2.8666    37.0977   -16.2775 H6            1 Polymer 
     852 H6          -3.1622    38.0130   -14.7414 H6            1 Polymer 
     853 H6          -2.4278    36.3677   -14.6857 H6            1 Polymer 
     854 H6         -15.3411    41.1153   -13.8623 H6            1 Polymer 
     855 H6         -15.8740    41.8652   -15.4098 H6            1 Polymer 
     856 H6         -13.3990    41.6832   -16.1014 H6            1 Polymer 
     857 H6         -13.0817    41.3913   -14.3263 H6            1 Polymer 
     858 H6         -14.3504    43.5416   -13.8291 H6            1 Polymer 
     859 H6         -14.5317    43.7549   -15.5914 H6            1 Polymer 
     860 H6         -11.8725    43.6536   -14.0120 H6            1 Polymer 
     861 H6         -11.9843    43.5476   -15.7587 H6            1 Polymer 
     862 H6         -11.4960    45.8337   -15.2272 H6            1 Polymer 
     863 H6         -13.1071    45.6533   -16.0016 H6            1 Polymer 
     864 H6         -12.5513    46.0244   -12.9934 H6            1 Polymer 
     865 H6         -14.1953    45.8542   -13.7059 H6            1 Polymer 
     866 H6         -12.1898    48.1283   -14.3136 H6            1 Polymer 
     867 H6         -13.6253    48.2081   -13.2276 H6            1 Polymer 
     868 H6         -14.1843    49.2048   -15.4037 H6            1 Polymer 
     869 H6         -13.7089    47.7304   -16.2853 H6            1 Polymer 
     870 H6         -15.1200    47.6681   -15.1710 H6            1 Polymer 
     871 C0         -21.9207    46.3958   -17.7769 C0            1 Polymer 
     872 C1         -23.1846    46.1854   -18.5727 C1            1 Polymer 
     873 C1         -24.1040    45.4960   -17.9012 C1            1 Polymer 
     874 C1         -23.5286    44.9336   -16.6771 C1            1 Polymer 
     875 C1         -21.9889    45.0557   -16.9844 C1            1 Polymer 
     876 C1         -21.6662    43.8397   -17.7875 C1            1 Polymer 
     877 C1         -22.6026    42.8846   -17.7951 C1            1 Polymer 
     878 S2         -23.9985    43.2252   -16.7519 S2            1 Polymer 
     879 C1         -22.4080    41.5386   -18.3748 C1            1 Polymer 
     880 C1         -21.2298    41.2332   -19.0814 C1            1 Polymer 
     881 N3         -20.8688    39.9432   -19.2652 N3            1 Polymer 
     882 C1         -21.5415    38.9428   -18.6409 C1            1 Polymer 
     883 C1         -22.8879    39.1420   -18.3473 C1            1 Polymer 
     884 C1         -23.3144    40.4757   -18.1379 C1            1 Polymer 
     885 N3         -24.5551    40.5972   -17.5934 N3            1 Polymer 
     886 S2         -25.0409    39.0313   -17.4127 S2            1 Polymer 
     887 N3         -23.7385    38.1666   -17.9350 N3            1 Polymer 
     888 S2         -25.3938    45.0605   -18.8909 S2            1 Polymer 
     889 C1         -24.7390    45.8113   -20.2688 C1            1 Polymer 
     890 C1         -23.5039    46.3797   -19.9139 C1            1 Polymer 
     891 C0         -22.0436    47.5231   -16.6593 C0            1 Polymer 
     892 C0         -22.8526    48.8169   -16.9982 C0            1 Polymer 
     893 C0         -22.1261    50.0904   -16.4300 C0            1 Polymer 
     894 C0         -22.5162    51.4020   -17.1444 C0            1 Polymer 
     895 C0         -22.1099    52.6835   -16.3730 C0            1 Polymer 
     896 C0         -22.6948    53.9354   -17.0724 C0            1 Polymer 
     897 C0         -22.8368    55.1802   -16.1656 C0            1 Polymer 
     898 C0         -21.5795    56.0092   -15.8449 C0            1 Polymer 
     899 C0         -21.0928    56.8046   -17.0670 C0            1 Polymer 
     900 C0         -19.9799    57.8254   -16.7520 C0            1 Polymer 
     901 C0         -20.4946    59.0545   -15.9831 C0            1 Polymer 
     902 C0         -19.4003    60.1105   -15.8250 C0            1 Polymer 
     903 C0         -24.2645    48.6097   -16.3186 C0            1 Polymer 
     904 C0         -25.4651    49.4357   -16.7594 C0            1 Polymer 
     905 C0         -26.7161    49.0876   -15.9041 C0            1 Polymer 
     906 C0         -27.9356    49.6470   -16.6169 C0            1 Polymer 
     907 C0         -29.3063    49.5511   -15.9497 C0            1 Polymer 
     908 C0         -30.3322    50.1147   -16.9587 C0            1 Polymer 
     909 C0         -31.7725    50.1005   -16.4533 C0            1 Polymer 
     910 C0         -32.7066    50.6751   -17.5222 C0            1 Polymer 
     911 C0         -20.7652    46.6320   -18.8318 C0            1 Polymer 
     912 C0         -19.2392    46.9135   -18.6088 C0            1 Polymer 
     913 C0         -18.3864    45.6696   -18.1919 C0            1 Polymer 
     914 C0         -16.8819    45.8726   -18.5149 C0            1 Polymer 
     915 C0         -15.9482    44.6525   -18.4066 C0            1 Polymer 
     916 C0         -14.5172    45.1131   -18.7955 C0            1 Polymer 
     917 C0         -13.4217    44.0436   -18.6475 C0            1 Polymer 
     918 C0         -12.0292    44.6571   -18.9323 C0            1 Polymer 
     919 C0         -10.8790    43.6954   -18.5840 C0            1 Polymer 
     920 C0          -9.5020    44.3719   -18.6949 C0            1 Polymer 
     921 C0          -8.4169    43.5005   -18.0402 C0            1 Polymer 
     922 C0          -7.0370    44.1462   -18.1339 C0            1 Polymer 
     923 C0         -19.0299    48.2626   -17.8594 C0            1 Polymer 
     924 C0         -17.6615    48.9212   -17.9796 C0            1 Polymer 
     925 C0         -17.7640    50.4244   -17.7144 C0            1 Polymer 
     926 C0         -16.3726    51.0542   -17.7817 C0            1 Polymer 
     927 C0         -16.4154    52.5678   -17.9778 C0            1 Polymer 
     928 C0         -17.0445    53.3202   -16.8027 C0            1 Polymer 
     929 C0         -17.0871    54.8350   -17.0467 C0            1 Polymer 
     930 C0         -17.9801    55.2122   -18.2301 C0            1 Polymer 
     931 H4         -20.7043    43.7507   -18.2565 H4            1 Polymer 
     932 H5         -20.5269    41.9861   -19.3949 H5            1 Polymer 
     933 H4         -22.8660    46.9080   -20.6064 H4            1 Polymer 
     934 H6         -22.4684    47.1151   -15.7128 H6            1 Polymer 
     935 H6         -21.0654    47.7321   -16.2483 H6            1 Polymer 
     936 H6         -22.8850    48.8866   -18.1067 H6            1 Polymer 
     937 H6         -21.0265    50.0130   -16.5641 H6            1 Polymer 
     938 H6         -22.3137    50.1456   -15.3357 H6            1 Polymer 
     939 H6         -23.6026    51.4440   -17.2572 H6            1 Polymer 
     940 H6         -22.0839    51.3943   -18.1649 H6            1 Polymer 
     941 H6         -21.0095    52.7725   -16.2424 H6            1 Polymer 
     942 H6         -22.5790    52.6006   -15.3688 H6            1 Polymer 
     943 H6         -23.7461    53.6851   -17.3321 H6            1 Polymer 
     944 H6         -22.1605    54.1497   -18.0201 H6            1 Polymer 
     945 H6         -23.5612    55.8751   -16.6472 H6            1 Polymer 
     946 H6         -23.3040    54.8494   -15.2137 H6            1 Polymer 
     947 H6         -21.8876    56.7430   -15.0722 H6            1 Polymer 
     948 H6         -20.7711    55.3751   -15.4220 H6            1 Polymer 
     949 H6         -20.7320    56.0875   -17.8234 H6            1 Polymer 
     950 H6         -21.9430    57.3614   -17.5109 H6            1 Polymer 
     951 H6         -19.5892    58.2039   -17.7135 H6            1 Polymer 
     952 H6         -19.1397    57.3357   -16.2156 H6            1 Polymer 
     953 H6         -20.8617    58.7647   -14.9783 H6            1 Polymer 
     954 H6         -21.3330    59.5160   -16.5514 H6            1 Polymer 
     955 H6         -19.0291    60.4435   -16.8180 H6            1 Polymer 
     956 H6         -18.5490    59.7041   -15.2409 H6            1 Polymer 
     957 H6         -19.8111    60.9964   -15.2958 H6            1 Polymer 
     958 H6         -24.1413    48.7029   -15.2161 H6            1 Polymer 
     959 H6         -24.5967    47.5727   -16.5076 H6            1 Polymer 
     960 H6         -25.6350    49.1925   -17.8319 H6            1 Polymer 
     961 H6         -25.3168    50.5205   -16.6518 H6            1 Polymer 
     962 H6         -26.8525    47.9873   -15.8106 H6            1 Polymer 
     963 H6         -26.6003    49.5246   -14.8884 H6            1 Polymer 
     964 H6         -28.0083    49.0267   -17.5275 H6            1 Polymer 
     965 H6         -27.7470    50.7210   -16.8435 H6            1 Polymer 
     966 H6         -29.5452    48.4914   -15.7149 H6            1 Polymer 
     967 H6         -29.3157    50.1498   -15.0138 H6            1 Polymer 
     968 H6         -30.0573    51.1653   -17.2068 H6            1 Polymer 
     969 H6         -30.2868    49.5121   -17.8945 H6            1 Polymer 
     970 H6         -32.0793    49.0575   -16.2249 H6            1 Polymer 
     971 H6         -31.8523    50.7155   -15.5318 H6            1 Polymer 
     972 H6         -32.4239    51.7234   -17.7626 H6            1 Polymer 
     973 H6         -32.6504    50.0698   -18.4535 H6            1 Polymer 
     974 H6         -33.7540    50.6656   -17.1569 H6            1 Polymer 
     975 H6         -21.1011    47.5303   -19.3949 H6            1 Polymer 
     976 H6         -20.8068    45.7877   -19.5566 H6            1 Polymer 
     977 H6         -18.9125    47.1194   -19.6548 H6            1 Polymer 
     978 H6         -18.5605    45.3990   -17.1345 H6            1 Polymer 
     979 H6         -18.7127    44.8196   -18.8279 H6            1 Polymer 
     980 H6         -16.4651    46.6135   -17.8273 H6            1 Polymer 
     981 H6         -16.8020    46.2428   -19.5607 H6            1 Polymer 
     982 H6         -15.9631    44.2752   -17.3627 H6            1 Polymer 
     983 H6         -16.2829    43.8417   -19.0886 H6            1 Polymer 
     984 H6         -14.2453    45.9643   -18.1333 H6            1 Polymer 
     985 H6         -14.5187    45.4796   -19.8457 H6            1 Polymer 
     986 H6         -13.4415    43.6799   -17.6060 H6            1 Polymer 
     987 H6         -13.6129    43.1819   -19.3215 H6            1 Polymer 
     988 H6         -11.9576    44.9727   -19.9957 H6            1 Polymer 
     989 H6         -11.9127    45.5591   -18.2906 H6            1 Polymer 
     990 H6         -10.9161    42.7790   -19.2100 H6            1 Polymer 
     991 H6         -10.9960    43.3840   -17.5405 H6            1 Polymer 
     992 H6          -9.2684    44.5655   -19.7641 H6            1 Polymer 
     993 H6          -9.5197    45.3436   -18.1520 H6            1 Polymer 
     994 H6          -8.6626    43.3667   -16.9621 H6            1 Polymer 
     995 H6          -8.3835    42.5006   -18.5222 H6            1 Polymer 
     996 H6          -6.7348    44.2539   -19.1964 H6            1 Polymer 
     997 H6          -7.0391    45.1459   -17.6485 H6            1 Polymer 
     998 H6          -6.2925    43.5055   -17.6142 H6            1 Polymer 
     999 H6         -19.2233    48.2087   -16.7846 H6            1 Polymer 
    1000 H6         -19.7522    48.9647   -18.3313 H6            1 Polymer 
    1001 H6         -17.2753    48.7898   -19.0142 H6            1 Polymer 
    1002 H6         -16.9638    48.4924   -17.2387 H6            1 Polymer 
    1003 H6         -18.2391    50.6408   -16.7400 H6            1 Polymer 
    1004 H6         -18.4134    50.8572   -18.5025 H6            1 Polymer 
    1005 H6         -15.7608    50.7556   -16.9126 H6            1 Polymer 
    1006 H6         -15.8654    50.6485   -18.6585 H6            1 Polymer 
    1007 H6         -15.3770    52.9338   -18.1292 H6            1 Polymer 
    1008 H6         -16.9870    52.7570   -18.9068 H6            1 Polymer 
    1009 H6         -16.4362    53.1260   -15.8975 H6            1 Polymer 
    1010 H6         -18.0791    52.9621   -16.6141 H6            1 Polymer 
    1011 H6         -16.0609    55.2277   -17.2154 H6            1 Polymer 
    1012 H6         -17.4987    55.3149   -16.1332 H6            1 Polymer 
    1013 H6         -18.0456    56.3155   -18.3110 H6            1 Polymer 
    1014 H6         -17.5769    54.8382   -19.1911 H6            1 Polymer 
    1015 H6         -18.9910    54.7844   -18.0800 H6            1 Polymer 
    1016 C0         -25.7781    53.5141   -20.6905 C0            1 Polymer 
    1017 C1         -27.0463    53.2973   -21.4762 C1            1 Polymer 
    1018 C1         -27.9565    52.6036   -20.7968 C1            1 Polymer 
    1019 C1         -27.3675    52.0435   -19.5780 C1            1 Polymer 
    1020 C1         -25.8316    52.1720   -19.9001 C1            1 Polymer 
    1021 C1         -25.5148    50.9589   -20.7127 C1            1 Polymer 
    1022 C1         -26.4493    50.0024   -20.7134 C1            1 Polymer 
    1023 S2         -27.8308    50.3337   -19.6496 S2            1 Polymer 
    1024 C1         -26.2625    48.6604   -21.3008 C1            1 Polymer 
    1025 C1         -25.0874    48.3536   -22.0135 C1            1 Polymer 
    1026 N3         -24.7323    47.0642   -22.2047 N3            1 Polymer 
    1027 C1         -25.4099    46.0655   -21.5807 C1            1 Polymer 
    1028 C1         -26.7524    46.2675   -21.2866 C1            1 Polymer 
    1029 C1         -27.1768    47.5999   -21.0689 C1            1 Polymer 
    1030 N3         -28.4194    47.7258   -20.5317 N3            1 Polymer 
    1031 S2         -28.9135    46.1584   -20.3672 S2            1 Polymer 
    1032 N3         -27.6137    45.2927   -20.8884 N3            1 Polymer 
    1033 S2         -29.2534    52.1625   -21.7747 S2            1 Polymer 
    1034 C1         -28.6168    52.9178   -23.1585 C1            1 Polymer 
    1035 C1         -27.3789    53.4908   -22.8141 C1            1 Polymer 
    1036 C0         -25.9024    54.6414   -19.5732 C0            1 Polymer 
    1037 C0         -26.7120    55.9343   -19.9157 C0            1 Polymer 
    1038 C0         -25.9886    57.2092   -19.3479 C0            1 Polymer 
    1039 C0         -26.3757    58.5178   -20.0691 C0            1 Polymer 
    1040 C0         -25.9755    59.8016   -19.2988 C0            1 Polymer 
    1041 C0         -26.5579    61.0506   -20.0050 C0            1 Polymer 
    1042 C0         -26.7079    62.2965   -19.1013 C0            1 Polymer 
    1043 C0         -25.4534    63.1270   -18.7743 C0            1 Polymer 
    1044 C0         -24.9625    63.9232   -19.9942 C0            1 Polymer 
    1045 C0         -23.8507    64.9435   -19.6747 C0            1 Polymer 
    1046 C0         -24.3684    66.1719   -18.9066 C0            1 Polymer 
    1047 C0         -23.2758    67.2292   -18.7472 C0            1 Polymer 
    1048 C0         -28.1255    55.7275   -19.2397 C0            1 Polymer 
    1049 C0         -29.3237    56.5550   -19.6836 C0            1 Polymer 
    1050 C0         -30.5780    56.2058   -18.8340 C0            1 Polymer 
    1051 C0         -31.7939    56.7656   -19.5520 C0            1 Polymer 
    1052 C0         -33.1671    56.6673   -18.8897 C0            1 Polymer 
    1053 C0         -34.1909    57.2291   -19.9016 C0            1 Polymer 
    1054 C0         -35.6325    57.2153   -19.3998 C0            1 Polymer 
    1055 C0         -36.5641    57.7868   -20.4725 C0            1 Polymer 
    1056 C0         -24.6310    53.7578   -21.7521 C0            1 Polymer 
    1057 C0         -23.1052    54.0426   -21.5333 C0            1 Polymer 
    1058 C0         -22.2513    52.8004   -21.1138 C0            1 Polymer 
    1059 C0         -20.7474    53.0015   -21.4393 C0            1 Polymer 
    1060 C0         -19.8140    51.7823   -21.3221 C0            1 Polymer 
    1061 C0         -18.3826    52.2403   -21.7124 C0            1 Polymer 
    1062 C0         -17.2878    51.1720   -21.5536 C0            1 Polymer 
    1063 C0         -15.8944    51.7822   -21.8417 C0            1 Polymer 
    1064 C0         -14.7466    50.8229   -21.4802 C0            1 Polymer 
    1065 C0         -13.3670    51.4919   -21.5994 C0            1 Polymer 
    1066 C0         -12.2867    50.6219   -20.9343 C0            1 Polymer 
    1067 C0         -10.9031    51.2580   -21.0358 C0            1 Polymer 
    1068 C0         -22.8961    55.3938   -20.7872 C0            1 Polymer 
    1069 C0         -21.5271    56.0507   -20.9096 C0            1 Polymer 
    1070 C0         -21.6258    57.5542   -20.6464 C0            1 Polymer 
    1071 C0         -20.2333    58.1815   -20.7221 C0            1 Polymer 
    1072 C0         -20.2759    59.6946   -20.9196 C0            1 Polymer 
    1073 C0         -20.8912    60.4484   -19.7382 C0            1 Polymer 
    1074 C0         -20.9407    61.9621   -19.9861 C0            1 Polymer 
    1075 C0         -21.8550    62.3324   -21.1551 C0            1 Polymer 
    1076 H4         -24.5598    50.8745   -21.1955 H4            1 Polymer 
    1077 H5         -24.3807    49.1040   -22.3238 H5            1 Polymer 
    1078 H4         -26.7484    54.0238   -23.5103 H4            1 Polymer 
    1079 H6         -26.3289    54.2338   -18.6274 H6            1 Polymer 
    1080 H6         -24.9240    54.8518   -19.1634 H6            1 Polymer 
    1081 H6         -26.7420    56.0028   -21.0243 H6            1 Polymer 
    1082 H6         -24.8883    57.1322   -19.4763 H6            1 Polymer 
    1083 H6         -26.1816    57.2679   -18.2548 H6            1 Polymer 
    1084 H6         -27.4614    58.5582   -20.1894 H6            1 Polymer 
    1085 H6         -25.9367    58.5076   -21.0868 H6            1 Polymer 
    1086 H6         -24.8760    59.8923   -19.1617 H6            1 Polymer 
    1087 H6         -26.4505    59.7207   -18.2972 H6            1 Polymer 
    1088 H6         -27.6070    60.7982   -20.2713 H6            1 Polymer 
    1089 H6         -26.0174    61.2636   -20.9495 H6            1 Polymer 
    1090 H6         -27.4305    62.9895   -19.5882 H6            1 Polymer 
    1091 H6         -27.1803    61.9662   -18.1517 H6            1 Polymer 
    1092 H6         -25.7658    63.8604   -18.0030 H6            1 Polymer 
    1093 H6         -24.6462    62.4937   -18.3479 H6            1 Polymer 
    1094 H6         -24.5997    63.2071   -20.7505 H6            1 Polymer 
    1095 H6         -25.8112    64.4804   -20.4402 H6            1 Polymer 
    1096 H6         -23.4569    65.3229   -20.6345 H6            1 Polymer 
    1097 H6         -23.0120    64.4535   -19.1360 H6            1 Polymer 
    1098 H6         -24.7371    65.8814   -17.9026 H6            1 Polymer 
    1099 H6         -25.2063    66.6323   -19.4765 H6            1 Polymer 
    1100 H6         -22.9039    67.5624   -19.7400 H6            1 Polymer 
    1101 H6         -22.4247    66.8240   -18.1619 H6            1 Polymer 
    1102 H6         -23.6885    68.1147   -18.2187 H6            1 Polymer 
    1103 H6         -28.0054    55.8204   -18.1369 H6            1 Polymer 
    1104 H6         -28.4579    54.6909   -19.4300 H6            1 Polymer 
    1105 H6         -29.4902    56.3144   -20.7574 H6            1 Polymer 
    1106 H6         -29.1751    57.6397   -19.5727 H6            1 Polymer 
    1107 H6         -30.7148    55.1054   -18.7426 H6            1 Polymer 
    1108 H6         -30.4669    56.6413   -17.8171 H6            1 Polymer 
    1109 H6         -31.8602    56.1471   -20.4644 H6            1 Polymer 
    1110 H6         -31.6051    57.8401   -19.7762 H6            1 Polymer 
    1111 H6         -33.4054    55.6073   -18.6557 H6            1 Polymer 
    1112 H6         -33.1805    57.2660   -17.9538 H6            1 Polymer 
    1113 H6         -33.9161    58.2794   -20.1507 H6            1 Polymer 
    1114 H6         -34.1432    56.6246   -20.8360 H6            1 Polymer 
    1115 H6         -35.9394    56.1727   -19.1696 H6            1 Polymer 
    1116 H6         -35.7149    57.8326   -18.4800 H6            1 Polymer 
    1117 H6         -36.2811    58.8346   -20.7150 H6            1 Polymer 
    1118 H6         -36.5053    57.1792   -21.4021 H6            1 Polymer 
    1119 H6         -37.6124    57.7781   -20.1099 H6            1 Polymer 
    1120 H6         -24.9729    54.6549   -22.3134 H6            1 Polymer 
    1121 H6         -24.6728    52.9141   -22.4777 H6            1 Polymer 
    1122 H6         -22.7805    54.2464   -22.5803 H6            1 Polymer 
    1123 H6         -22.4242    52.5340   -20.0551 H6            1 Polymer 
    1124 H6         -22.5779    51.9480   -21.7464 H6            1 Polymer 
    1125 H6         -20.3299    53.7461   -20.7567 H6            1 Polymer 
    1126 H6         -20.6681    53.3653   -22.4874 H6            1 Polymer 
    1127 H6         -19.8299    51.4126   -20.2756 H6            1 Polymer 
    1128 H6         -20.1483    50.9667   -21.9987 H6            1 Polymer 
    1129 H6         -18.1116    53.0963   -21.0560 H6            1 Polymer 
    1130 H6         -18.3826    52.5987   -22.7653 H6            1 Polymer 
    1131 H6         -17.3097    50.8173   -20.5092 H6            1 Polymer 
    1132 H6         -17.4783    50.3044   -22.2203 H6            1 Polymer 
    1133 H6         -15.8207    52.0859   -22.9083 H6            1 Polymer 
    1134 H6         -15.7780    52.6909   -21.2094 H6            1 Polymer 
    1135 H6         -14.7866    49.8978   -22.0931 H6            1 Polymer 
    1136 H6         -14.8642    50.5282   -20.4325 H6            1 Polymer 
    1137 H6         -13.1325    51.6710   -22.6708 H6            1 Polymer 
    1138 H6         -13.3802    52.4700   -21.0682 H6            1 Polymer 
    1139 H6         -12.5329    50.5020   -19.8547 H6            1 Polymer 
    1140 H6         -12.2593    49.6163   -21.4046 H6            1 Polymer 
    1141 H6         -10.6008    51.3519   -22.0995 H6            1 Polymer 
    1142 H6         -10.8988    52.2629   -20.5614 H6            1 Polymer 
    1143 H6         -10.1625    50.6183   -20.5093 H6            1 Polymer 
    1144 H6         -23.0894    55.3437   -19.7122 H6            1 Polymer 
    1145 H6         -23.6183    56.0949   -21.2608 H6            1 Polymer 
    1146 H6         -21.1425    55.9164   -21.9444 H6            1 Polymer 
    1147 H6         -20.8292    55.6227   -20.1687 H6            1 Polymer 
    1148 H6         -22.0959    57.7730   -19.6702 H6            1 Polymer 
    1149 H6         -22.2778    57.9868   -21.4324 H6            1 Polymer 
    1150 H6         -19.6155    57.8827   -19.8570 H6            1 Polymer 
    1151 H6         -19.7330    57.7755   -21.6024 H6            1 Polymer 
    1152 H6         -19.2389    60.0595   -21.0823 H6            1 Polymer 
    1153 H6         -20.8567    59.8827   -21.8431 H6            1 Polymer 
    1154 H6         -20.2700    60.2575   -18.8411 H6            1 Polymer 
    1155 H6         -21.9223    60.0888   -19.5342 H6            1 Polymer 
    1156 H6         -19.9185    62.3568   -20.1733 H6            1 Polymer 
    1157 H6         -21.3384    62.4441   -19.0675 H6            1 Polymer 
    1158 H6         -21.9252    63.4351   -21.2389 H6            1 Polymer 
    1159 H6         -21.4685    61.9560   -22.1220 H6            1 Polymer 
    1160 H6         -22.8616    61.9018   -20.9849 H6            1 Polymer 
    1161 C0         -29.6530    60.6291   -23.6251 C0            1 Polymer 
    1162 C1         -30.9169    60.4183   -24.4208 C1            1 Polymer 
    1163 C1         -31.8375    59.7333   -23.7470 C1            1 Polymer 
    1164 C1         -31.2640    59.1758   -22.5198 C1            1 Polymer 
    1165 C1         -29.7243    59.2915   -22.8284 C1            1 Polymer 
    1166 C1         -29.4074    58.0702   -23.6266 C1            1 Polymer 
    1167 C1         -30.3474    57.1175   -23.6259 C1            1 Polymer 
    1168 S2         -31.7410    57.4693   -22.5837 S2            1 Polymer 
    1169 C1         -30.1587    55.7691   -24.1986 C1            1 Polymer 
    1170 C1         -28.9871    55.4609   -24.9135 C1            1 Polymer 
    1171 N3         -28.6290    54.1704   -25.0935 N3            1 Polymer 
    1172 C1         -29.3006    53.1726   -24.4637 C1            1 Polymer 
    1173 C1         -30.6433    53.3737   -24.1580 C1            1 Polymer 
    1174 C1         -31.0653    54.7071   -23.9487 C1            1 Polymer 
    1175 N3         -32.3018    54.8331   -23.3957 N3            1 Polymer 
    1176 S2         -32.7899    53.2683   -23.2067 S2            1 Polymer 
    1177 N3         -31.4938    52.3997   -23.7368 N3            1 Polymer 
    1178 S2         -33.1279    59.2962   -24.7350 S2            1 Polymer 
    1179 C1         -32.4750    60.0422   -26.1165 C1            1 Polymer 
    1180 C1         -31.2371    60.6092   -25.7630 C1            1 Polymer 
    1181 C0         -29.7748    61.7601   -22.5108 C0            1 Polymer 
    1182 C0         -30.5838    63.0532   -22.8528 C0            1 Polymer 
    1183 C0         -29.8566    64.3268   -22.2858 C0            1 Polymer 
    1184 C0         -30.2500    65.6391   -22.9966 C0            1 Polymer 
    1185 C0         -29.8382    66.9202   -22.2278 C0            1 Polymer 
    1186 C0         -30.4226    68.1725   -22.9271 C0            1 Polymer 
    1187 C0         -30.5633    69.4177   -22.0209 C0            1 Polymer 
    1188 C0         -29.3051    70.2448   -21.6988 C0            1 Polymer 
    1189 C0         -28.8161    71.0402   -22.9200 C0            1 Polymer 
    1190 C0         -27.7031    72.0603   -22.6029 C0            1 Polymer 
    1191 C0         -28.2193    73.2891   -21.8343 C0            1 Polymer 
    1192 C0         -27.1268    74.3471   -21.6781 C0            1 Polymer 
    1193 C0         -31.9965    62.8476   -22.1742 C0            1 Polymer 
    1194 C0         -33.1987    63.6665   -22.6242 C0            1 Polymer 
    1195 C0         -34.4501    63.3217   -21.7684 C0            1 Polymer 
    1196 C0         -35.6690    63.8765   -22.4855 C0            1 Polymer 
    1197 C0         -37.0399    63.7837   -21.8181 C0            1 Polymer 
    1198 C0         -38.0660    64.3423   -22.8295 C0            1 Polymer 
    1199 C0         -39.5059    64.3327   -22.3227 C0            1 Polymer 
    1200 C0         -40.4404    64.9018   -23.3942 C0            1 Polymer 
    1201 C0         -28.4974    60.8615   -24.6808 C0            1 Polymer 
    1202 C0         -26.9712    61.1449   -24.4611 C0            1 Polymer 
    1203 C0         -26.1167    59.9035   -24.0408 C0            1 Polymer 
    1204 C0         -24.6137    60.1041   -24.3735 C0            1 Polymer 
    1205 C0         -23.6788    58.8861   -24.2552 C0            1 Polymer 
    1206 C0         -22.2480    59.3437   -24.6490 C0            1 Polymer 
    1207 C0         -21.1534    58.2750   -24.4905 C0            1 Polymer 
    1208 C0         -19.7591    58.8842   -24.7767 C0            1 Polymer 
    1209 C0         -18.6123    57.9217   -24.4192 C0            1 Polymer 
    1210 C0         -17.2321    58.5912   -24.5312 C0            1 Polymer 
    1211 C0         -16.1534    57.7179   -23.8679 C0            1 Polymer 
    1212 C0         -14.7694    58.3543   -23.9625 C0            1 Polymer 
    1213 C0         -26.7617    62.4970   -23.7169 C0            1 Polymer 
    1214 C0         -25.3929    63.1541   -23.8380 C0            1 Polymer 
    1215 C0         -25.4938    64.6576   -23.5749 C0            1 Polymer 
    1216 C0         -24.1018    65.2864   -23.6435 C0            1 Polymer 
    1217 C0         -24.1446    66.7997   -23.8406 C0            1 Polymer 
    1218 C0         -24.7726    67.5526   -22.6652 C0            1 Polymer 
    1219 C0         -24.8202    69.0666   -22.9121 C0            1 Polymer 
    1220 C0         -25.7186    69.4382   -24.0931 C0            1 Polymer 
    1221 H4         -28.4465    57.9761   -24.0971 H4            1 Polymer 
    1222 H5         -28.2847    56.2106   -25.2365 H5            1 Polymer 
    1223 H4         -30.5978    61.1348   -26.4568 H4            1 Polymer 
    1224 H6         -30.1990    61.3557   -21.5624 H6            1 Polymer 
    1225 H6         -28.7960    61.9698   -22.1014 H6            1 Polymer 
    1226 H6         -30.6154    63.1207   -23.9615 H6            1 Polymer 
    1227 H6         -28.7576    64.2501   -22.4247 H6            1 Polymer 
    1228 H6         -30.0399    64.3807   -21.1908 H6            1 Polymer 
    1229 H6         -31.3368    65.6828   -23.1014 H6            1 Polymer 
    1230 H6         -29.8240    65.6311   -24.0195 H6            1 Polymer 
    1231 H6         -28.7372    67.0074   -22.1012 H6            1 Polymer 
    1232 H6         -30.3039    66.8390   -21.2217 H6            1 Polymer 
    1233 H6         -31.4744    67.9235   -23.1861 H6            1 Polymer 
    1234 H6         -29.8888    68.3858   -23.8753 H6            1 Polymer 
    1235 H6         -31.2863    70.1136   -22.5032 H6            1 Polymer 
    1236 H6         -31.0318    69.0877   -21.0693 H6            1 Polymer 
    1237 H6         -29.6131    70.9786   -20.9262 H6            1 Polymer 
    1238 H6         -28.4980    69.6095   -21.2753 H6            1 Polymer 
    1239 H6         -28.4552    70.3233   -23.6765 H6            1 Polymer 
    1240 H6         -29.6650    71.5980   -23.3648 H6            1 Polymer 
    1241 H6         -27.3108    72.4393   -23.5635 H6            1 Polymer 
    1242 H6         -26.8636    71.5705   -22.0656 H6            1 Polymer 
    1243 H6         -28.5855    72.9993   -20.8291 H6            1 Polymer 
    1244 H6         -29.0588    73.7491   -22.4022 H6            1 Polymer 
    1245 H6         -26.7578    74.6800   -22.6720 H6            1 Polymer 
    1246 H6         -26.2741    73.9428   -21.0947 H6            1 Polymer 
    1247 H6         -27.5388    75.2327   -21.1491 H6            1 Polymer 
    1248 H6         -31.8756    62.9481   -21.0721 H6            1 Polymer 
    1249 H6         -32.3264    61.8088   -22.3563 H6            1 Polymer 
    1250 H6         -33.3665    63.4148   -23.6951 H6            1 Polymer 
    1251 H6         -33.0547    64.7525   -22.5253 H6            1 Polymer 
    1252 H6         -34.5854    62.2218   -21.6690 H6            1 Polymer 
    1253 H6         -34.3361    63.7646   -20.7551 H6            1 Polymer 
    1254 H6         -35.7398    63.2523   -23.3937 H6            1 Polymer 
    1255 H6         -35.4808    64.9496   -22.7166 H6            1 Polymer 
    1256 H6         -37.2788    62.7252   -21.5779 H6            1 Polymer 
    1257 H6         -37.0491    64.3872   -20.8853 H6            1 Polymer 
    1258 H6         -37.7906    65.3913   -23.0839 H6            1 Polymer 
    1259 H6         -38.0219    63.7341   -23.7616 H6            1 Polymer 
    1260 H6         -39.8136    63.2915   -22.0876 H6            1 Polymer 
    1261 H6         -39.5841    64.9535   -21.4049 H6            1 Polymer 
    1262 H6         -40.1567    65.9483   -23.6413 H6            1 Polymer 
    1263 H6         -40.3859    64.2907   -24.3217 H6            1 Polymer 
    1264 H6         -41.4874    64.8960   -23.0277 H6            1 Polymer 
    1265 H6         -28.8336    61.7578   -25.2468 H6            1 Polymer 
    1266 H6         -28.5394    60.0144   -25.4023 H6            1 Polymer 
    1267 H6         -26.6464    61.3469   -25.5084 H6            1 Polymer 
    1268 H6         -26.2855    59.6408   -22.9805 H6            1 Polymer 
    1269 H6         -26.4466    59.0489   -24.6688 H6            1 Polymer 
    1270 H6         -24.1938    60.8524   -23.6963 H6            1 Polymer 
    1271 H6         -24.5383    60.4635   -25.4234 H6            1 Polymer 
    1272 H6         -23.6924    58.5192   -23.2078 H6            1 Polymer 
    1273 H6         -24.0140    58.0685   -24.9288 H6            1 Polymer 
    1274 H6         -21.9759    60.2006   -23.9941 H6            1 Polymer 
    1275 H6         -22.2494    59.7009   -25.7023 H6            1 Polymer 
    1276 H6         -21.1762    57.9197   -23.4464 H6            1 Polymer 
    1277 H6         -21.3443    57.4081   -25.1580 H6            1 Polymer 
    1278 H6         -19.6845    59.1920   -25.8421 H6            1 Polymer 
    1279 H6         -19.6420    59.7904   -24.1410 H6            1 Polymer 
    1280 H6         -18.6515    57.0008   -25.0382 H6            1 Polymer 
    1281 H6         -18.7319    57.6189   -23.3739 H6            1 Polymer 
    1282 H6         -16.9948    58.7763   -25.6011 H6            1 Polymer 
    1283 H6         -17.2464    59.5665   -23.9948 H6            1 Polymer 
    1284 H6         -16.4024    57.5927   -22.7895 H6            1 Polymer 
    1285 H6         -16.1248    56.7146   -24.3431 H6            1 Polymer 
    1286 H6         -14.4639    58.4531   -25.0249 H6            1 Polymer 
    1287 H6         -14.7662    59.3569   -23.4833 H6            1 Polymer 
    1288 H6         -14.0303    57.7120   -23.4369 H6            1 Polymer 
    1289 H6         -26.9556    62.4471   -22.6419 H6            1 Polymer 
    1290 H6         -27.4835    63.1978   -24.1916 H6            1 Polymer 
    1291 H6         -25.0065    63.0203   -24.8722 H6            1 Polymer 
    1292 H6         -24.6961    62.7259   -23.0958 H6            1 Polymer 
    1293 H6         -25.9683    64.8756   -22.6007 H6            1 Polymer 
    1294 H6         -26.1433    65.0901   -24.3631 H6            1 Polymer 
    1295 H6         -23.4893    64.9880   -22.7746 H6            1 Polymer 
    1296 H6         -23.5954    64.8805   -24.5206 H6            1 Polymer 
    1297 H6         -23.1066    67.1660   -23.9936 H6            1 Polymer 
    1298 H6         -24.7174    66.9874   -24.7692 H6            1 Polymer 
    1299 H6         -24.1615    67.3614   -21.7612 H6            1 Polymer 
    1300 H6         -25.8059    67.1926   -22.4731 H6            1 Polymer 
    1301 H6         -23.7958    69.4622   -23.0850 H6            1 Polymer 
    1302 H6         -25.2303    69.5470   -21.9981 H6            1 Polymer 
    1303 H6         -25.7888    70.5411   -24.1757 H6            1 Polymer 
    1304 H6         -25.3174    69.0642   -25.0549 H6            1 Polymer 
    1305 H6         -26.7273    69.0064   -23.9389 H6            1 Polymer 
    1306 C0         -33.5261    67.7387   -26.5484 C0            1 Polymer 
    1307 C1         -34.7936    67.5255   -27.3370 C1            1 Polymer 
    1308 C1         -35.7071    66.8338   -26.6603 C1            1 Polymer 
    1309 C1         -35.1236    66.2709   -25.4406 C1            1 Polymer 
    1310 C1         -33.5861    66.3979   -25.7566 C1            1 Polymer 
    1311 C1         -33.2657    65.1842   -26.5651 C1            1 Polymer 
    1312 C1         -34.2005    64.2273   -26.5702 C1            1 Polymer 
    1313 S2         -35.5904    64.5617   -25.5183 S2            1 Polymer 
    1314 C1         -34.0082    62.8847   -27.1551 C1            1 Polymer 
    1315 C1         -32.8315    62.5827   -27.8642 C1            1 Polymer 
    1316 N3         -32.4718    61.2936   -28.0514 N3            1 Polymer 
    1317 C1         -33.1464    60.2921   -27.4304 C1            1 Polymer 
    1318 C1         -34.4924    60.4897   -27.1377 C1            1 Polymer 
    1319 C1         -34.9168    61.8211   -26.9214 C1            1 Polymer 
    1320 N3         -36.1587    61.9421   -26.3795 N3            1 Polymer 
    1321 S2         -36.6480    60.3759   -26.2081 S2            1 Polymer 
    1322 N3         -35.3462    59.5119   -26.7323 N3            1 Polymer 
    1323 S2         -37.0043    66.3990   -27.6403 S2            1 Polymer 
    1324 C1         -36.3627    67.1531   -29.0222 C1            1 Polymer 
    1325 C1         -35.1236    67.7218   -28.6753 C1            1 Polymer 
    1326 C0         -33.6486    68.8664   -25.4314 C0            1 Polymer 
    1327 C0         -34.4528    70.1620   -25.7763 C0            1 Polymer 
    1328 C0         -33.7269    71.4345   -25.2053 C0            1 Polymer 
    1329 C0         -34.1118    72.7467   -25.9219 C0            1 Polymer 
    1330 C0         -33.7049    74.0278   -25.1502 C0            1 Polymer 
    1331 C0         -34.2870    75.2810   -25.8502 C0            1 Polymer 
    1332 C0         -34.4280    76.5256   -24.9428 C0            1 Polymer 
    1333 C0         -33.1704    77.3551   -24.6237 C0            1 Polymer 
    1334 C0         -32.6879    78.1537   -25.8457 C0            1 Polymer 
    1335 C0         -31.5753    79.1752   -25.5320 C0            1 Polymer 
    1336 C0         -32.0898    80.4025   -24.7599 C0            1 Polymer 
    1337 C0         -30.9973    81.4608   -24.6051 C0            1 Polymer 
    1338 C0         -35.8691    69.9585   -25.1052 C0            1 Polymer 
    1339 C0         -37.0665    70.7846   -25.5547 C0            1 Polymer 
    1340 C0         -38.3207    70.4390   -24.7037 C0            1 Polymer 
    1341 C0         -39.5373    70.9999   -25.4196 C0            1 Polymer 
    1342 C0         -40.9079    70.9056   -24.7511 C0            1 Polymer 
    1343 C0         -41.9357    71.4705   -25.7570 C0            1 Polymer 
    1344 C0         -43.3741    71.4613   -25.2455 C0            1 Polymer 
    1345 C0         -44.3113    72.0373   -26.3110 C0            1 Polymer 
    1346 C0         -32.3761    67.9790   -27.6084 C0            1 Polymer 
    1347 C0         -30.8499    68.2636   -27.3897 C0            1 Polymer 
    1348 C0         -29.9952    67.0216   -26.9709 C0            1 Polymer 
    1349 C0         -28.4908    67.2237   -27.2956 C0            1 Polymer 
    1350 C0         -27.5570    66.0042   -27.1808 C0            1 Polymer 
    1351 C0         -26.1254    66.4625   -27.5705 C0            1 Polymer 
    1352 C0         -25.0310    65.3928   -27.4160 C0            1 Polymer 
    1353 C0         -23.6370    66.0023   -27.7033 C0            1 Polymer 
    1354 C0         -22.4901    65.0397   -27.3469 C0            1 Polymer 
    1355 C0         -21.1098    65.7087   -27.4604 C0            1 Polymer 
    1356 C0         -20.0310    64.8361   -26.7963 C0            1 Polymer 
    1357 C0         -18.6469    65.4722   -26.8921 C0            1 Polymer 
    1358 C0         -30.6411    69.6150   -26.6438 C0            1 Polymer 
    1359 C0         -29.2721    70.2722   -26.7643 C0            1 Polymer 
    1360 C0         -29.3716    71.7757   -26.4999 C0            1 Polymer 
    1361 C0         -27.9787    72.4027   -26.5702 C0            1 Polymer 
    1362 C0         -28.0189    73.9163   -26.7656 C0            1 Polymer 
    1363 C0         -28.6426    74.6700   -25.5885 C0            1 Polymer 
    1364 C0         -28.6849    76.1846   -25.8341 C0            1 Polymer 
    1365 C0         -29.5828    76.5606   -27.0140 C0            1 Polymer 
    1366 H4         -32.3069    65.0988   -27.0404 H4            1 Polymer 
    1367 H5         -32.1267    63.3348   -28.1763 H5            1 Polymer 
    1368 H4         -34.4908    68.2536   -29.3704 H4            1 Polymer 
    1369 H6         -34.0786    68.4606   -24.4863 H6            1 Polymer 
    1370 H6         -32.6699    69.0726   -25.0192 H6            1 Polymer 
    1371 H6         -34.4786    70.2308   -26.8849 H6            1 Polymer 
    1372 H6         -32.6270    71.3552   -25.3345 H6            1 Polymer 
    1373 H6         -33.9193    71.4904   -24.1120 H6            1 Polymer 
    1374 H6         -35.1976    72.7910   -26.0375 H6            1 Polymer 
    1375 H6         -33.6762    72.7375   -26.9410 H6            1 Polymer 
    1376 H6         -32.6046    74.1151   -25.0175 H6            1 Polymer 
    1377 H6         -34.1759    73.9457   -24.1467 H6            1 Polymer 
    1378 H6         -35.3385    75.0325   -26.1110 H6            1 Polymer 
    1379 H6         -33.7519    75.4949   -26.7975 H6            1 Polymer 
    1380 H6         -35.1533    77.2206   -25.4228 H6            1 Polymer 
    1381 H6         -34.8937    76.1945   -23.9903 H6            1 Polymer 
    1382 H6         -33.4770    78.0873   -23.8490 H6            1 Polymer 
    1383 H6         -32.3603    76.7210   -24.2041 H6            1 Polymer 
    1384 H6         -32.3288    77.4386   -26.6048 H6            1 Polymer 
    1385 H6         -33.5398    78.7105   -26.2861 H6            1 Polymer 
    1386 H6         -31.1877    79.5558   -26.4939 H6            1 Polymer 
    1387 H6         -30.7329    78.6859   -24.9987 H6            1 Polymer 
    1388 H6         -32.4525    80.1107   -23.7540 H6            1 Polymer 
    1389 H6         -32.9312    80.8628   -25.3245 H6            1 Polymer 
    1390 H6         -30.6313    81.7958   -25.5994 H6            1 Polymer 
    1391 H6         -30.1425    81.0558   -24.0251 H6            1 Polymer 
    1392 H6         -31.4080    82.3452   -24.0732 H6            1 Polymer 
    1393 H6         -35.7522    70.0536   -24.0022 H6            1 Polymer 
    1394 H6         -36.2018    68.9217   -25.2936 H6            1 Polymer 
    1395 H6         -37.2327    70.5398   -26.6276 H6            1 Polymer 
    1396 H6         -36.9182    71.8696   -25.4486 H6            1 Polymer 
    1397 H6         -38.4592    69.3389   -24.6101 H6            1 Polymer 
    1398 H6         -38.2075    70.8762   -23.6878 H6            1 Polymer 
    1399 H6         -39.6081    70.3805   -26.3310 H6            1 Polymer 
    1400 H6         -39.3470    72.0737   -25.6458 H6            1 Polymer 
    1401 H6         -41.1479    69.8463   -24.5155 H6            1 Polymer 
    1402 H6         -40.9148    71.5044   -23.8152 H6            1 Polymer 
    1403 H6         -41.6591    72.5200   -26.0074 H6            1 Polymer 
    1404 H6         -41.8956    70.8661   -26.6918 H6            1 Polymer 
    1405 H6         -43.6832    70.4196   -25.0142 H6            1 Polymer 
    1406 H6         -43.4482    72.0779   -24.3246 H6            1 Polymer 
    1407 H6         -44.0263    73.0844   -26.5540 H6            1 Polymer 
    1408 H6         -44.2613    71.4306   -27.2416 H6            1 Polymer 
    1409 H6         -45.3570    72.0319   -25.9407 H6            1 Polymer 
    1410 H6         -32.7162    68.8761   -28.1706 H6            1 Polymer 
    1411 H6         -32.4183    67.1347   -28.3331 H6            1 Polymer 
    1412 H6         -30.5250    68.4675   -28.4367 H6            1 Polymer 
    1413 H6         -30.1684    66.7544   -25.9127 H6            1 Polymer 
    1414 H6         -30.3215    66.1697   -27.6043 H6            1 Polymer 
    1415 H6         -28.0736    67.9673   -26.6116 H6            1 Polymer 
    1416 H6         -28.4114    67.5892   -28.3430 H6            1 Polymer 
    1417 H6         -27.5726    65.6321   -26.1351 H6            1 Polymer 
    1418 H6         -27.8914    65.1901   -27.8591 H6            1 Polymer 
    1419 H6         -25.8535    67.3165   -26.9120 H6            1 Polymer 
    1420 H6         -26.1258    66.8239   -28.6224 H6            1 Polymer 
    1421 H6         -25.0519    65.0349   -26.3726 H6            1 Polymer 
    1422 H6         -25.2228    64.5275   -28.0853 H6            1 Polymer 
    1423 H6         -23.5636    66.3105   -28.7686 H6            1 Polymer 
    1424 H6         -23.5192    66.9081   -27.0673 H6            1 Polymer 
    1425 H6         -22.5301    64.1183   -27.9653 H6            1 Polymer 
    1426 H6         -22.6092    64.7379   -26.3014 H6            1 Polymer 
    1427 H6         -20.8730    65.8924   -28.5306 H6            1 Polymer 
    1428 H6         -21.1236    66.6847   -26.9252 H6            1 Polymer 
    1429 H6         -20.2796    64.7124   -25.7177 H6            1 Polymer 
    1430 H6         -20.0028    63.8321   -27.2701 H6            1 Polymer 
    1431 H6         -18.3417    65.5694   -27.9548 H6            1 Polymer 
    1432 H6         -18.6435    66.4755   -26.4145 H6            1 Polymer 
    1433 H6         -17.9078    64.8306   -26.3658 H6            1 Polymer 
    1434 H6         -30.8356    69.5646   -25.5691 H6            1 Polymer 
    1435 H6         -31.3628    70.3162   -27.1182 H6            1 Polymer 
    1436 H6         -28.8860    70.1388   -27.7986 H6            1 Polymer 
    1437 H6         -28.5753    69.8436   -26.0226 H6            1 Polymer 
    1438 H6         -29.8447    71.9933   -25.5248 H6            1 Polymer 
    1439 H6         -30.0214    72.2095   -27.2871 H6            1 Polymer 
    1440 H6         -27.3653    72.1023   -25.7027 H6            1 Polymer 
    1441 H6         -27.4744    71.9975   -27.4490 H6            1 Polymer 
    1442 H6         -26.9804    74.2803   -26.9204 H6            1 Polymer 
    1443 H6         -28.5933    74.1061   -27.6926 H6            1 Polymer 
    1444 H6         -28.0307    74.4761   -24.6856 H6            1 Polymer 
    1445 H6         -29.6767    74.3131   -25.3953 H6            1 Polymer 
    1446 H6         -27.6592    76.5764   -26.0077 H6            1 Polymer 
    1447 H6         -29.0923    76.6658   -24.9194 H6            1 Polymer 
    1448 H6         -29.6487    77.6638   -27.0959 H6            1 Polymer 
    1449 H6         -29.1840    76.1857   -27.9765 H6            1 Polymer 
    1450 H6         -30.5928    76.1326   -26.8590 H6            1 Polymer 
    1451 C0         -37.4040    74.8625   -29.4771 C0            1 Polymer 
    1452 C1         -38.6668    74.6549   -30.2754 C1            1 Polymer 
    1453 C1         -39.5895    73.9692   -29.6052 C1            1 Polymer 
    1454 C1         -39.0184    73.4064   -28.3794 C1            1 Polymer 
    1455 C1         -37.4780    73.5226   -28.6850 C1            1 Polymer 
    1456 C1         -37.1601    72.3046   -29.4874 C1            1 Polymer 
    1457 C1         -38.1003    71.3524   -29.4928 C1            1 Polymer 
    1458 S2         -39.4963    71.7002   -28.4522 S2            1 Polymer 
    1459 C1         -37.9084    70.0056   -30.0679 C1            1 Polymer 
    1460 C1         -36.7331    69.6997   -30.7777 C1            1 Polymer 
    1461 N3         -36.3711    68.4101   -30.9548 N3            1 Polymer 
    1462 C1         -37.0439    67.4112   -30.3281 C1            1 Polymer 
    1463 C1         -38.3882    67.6097   -30.0275 C1            1 Polymer 
    1464 C1         -38.8140    68.9422   -29.8214 C1            1 Polymer 
    1465 N3         -40.0528    69.0664   -29.2734 N3            1 Polymer 
    1466 S2         -40.5385    67.5010   -29.0844 S2            1 Polymer 
    1467 N3         -39.2384    66.6344   -29.6083 N3            1 Polymer 
    1468 S2         -40.8773    73.5348   -30.5979 S2            1 Polymer 
    1469 C1         -40.2201    74.2827   -31.9762 C1            1 Polymer 
    1470 C1         -38.9831    74.8484   -31.6181 C1            1 Polymer 
    1471 C0         -37.5257    75.9897   -28.3595 C0            1 Polymer 
    1472 C0         -38.3322    77.2844   -28.7001 C0            1 Polymer 
    1473 C0         -37.6056    78.5566   -28.1303 C0            1 Polymer 
    1474 C0         -37.9909    79.8677   -28.8480 C0            1 Polymer 
    1475 C0         -37.5841    81.1491   -28.0772 C0            1 Polymer 
    1476 C0         -38.1627    82.4016   -28.7805 C0            1 Polymer 
    1477 C0         -38.3061    83.6473   -27.8753 C0            1 Polymer 
    1478 C0         -37.0482    84.4734   -27.5490 C0            1 Polymer 
    1479 C0         -36.5558    85.2694   -28.7685 C0            1 Polymer 
    1480 C0         -35.4412    86.2870   -28.4490 C0            1 Polymer 
    1481 C0         -35.9556    87.5161   -27.6800 C0            1 Polymer 
    1482 C0         -34.8611    88.5719   -27.5227 C0            1 Polymer 
    1483 C0         -39.7462    77.0793   -28.0243 C0            1 Polymer 
    1484 C0         -40.9437    77.9085   -28.4673 C0            1 Polymer 
    1485 C0         -42.1978    77.5604   -27.6170 C0            1 Polymer 
    1486 C0         -43.4148    78.1205   -28.3336 C0            1 Polymer 
    1487 C0         -44.7862    78.0246   -27.6675 C0            1 Polymer 
    1488 C0         -45.8125    78.5853   -28.6774 C0            1 Polymer 
    1489 C0         -47.2522    78.5738   -28.1699 C0            1 Polymer 
    1490 C0         -48.1877    79.1440   -29.2399 C0            1 Polymer 
    1491 C0         -36.2470    75.0978   -30.5303 C0            1 Polymer 
    1492 C0         -34.7213    75.3800   -30.3075 C0            1 Polymer 
    1493 C0         -33.8686    74.1367   -29.8891 C0            1 Polymer 
    1494 C0         -32.3642    74.3385   -30.2143 C0            1 Polymer 
    1495 C0         -31.4300    73.1192   -30.1023 C0            1 Polymer 
    1496 C0         -29.9984    73.5797   -30.4896 C0            1 Polymer 
    1497 C0         -28.9033    72.5103   -30.3387 C0            1 Polymer 
    1498 C0         -27.5096    73.1233   -30.6193 C0            1 Polymer 
    1499 C0         -26.3611    72.1599   -30.2698 C0            1 Polymer 
    1500 C0         -24.9829    72.8343   -30.3767 C0            1 Polymer 
    1501 C0         -23.9004    71.9587   -29.7228 C0            1 Polymer 
    1502 C0         -22.5190    72.6014   -29.8131 C0            1 Polymer 
    1503 C0         -34.5115    76.7309   -29.5606 C0            1 Polymer 
    1504 C0         -33.1425    77.3877   -29.6847 C0            1 Polymer 
    1505 C0         -33.2401    78.8917   -29.4228 C0            1 Polymer 
    1506 C0         -31.8468    79.5171   -29.4995 C0            1 Polymer 
    1507 C0         -31.8862    81.0302   -29.6986 C0            1 Polymer 
    1508 C0         -32.5009    81.7872   -28.5190 C0            1 Polymer 
    1509 C0         -32.5453    83.3009   -28.7683 C0            1 Polymer 
    1510 C0         -33.4540    83.6733   -29.9410 C0            1 Polymer 
    1511 H4         -36.1976    72.2123   -29.9551 H4            1 Polymer 
    1512 H5         -36.0304    70.4505   -31.0974 H5            1 Polymer 
    1513 H4         -38.3414    75.3742   -32.3095 H4            1 Polymer 
    1514 H6         -37.9521    75.5831   -27.4130 H6            1 Polymer 
    1515 H6         -36.5464    76.1965   -27.9489 H6            1 Polymer 
    1516 H6         -38.3617    77.3543   -29.8087 H6            1 Polymer 
    1517 H6         -36.5057    78.4772   -28.2607 H6            1 Polymer 
    1518 H6         -37.7969    78.6132   -27.0368 H6            1 Polymer 
    1519 H6         -39.0770    79.9117   -28.9646 H6            1 Polymer 
    1520 H6         -37.5550    79.8573   -29.8669 H6            1 Polymer 
    1521 H6         -36.4839    81.2353   -27.9426 H6            1 Polymer 
    1522 H6         -38.0572    81.0688   -27.0746 H6            1 Polymer 
    1523 H6         -39.2134    82.1535   -29.0449 H6            1 Polymer 
    1524 H6         -37.6235    82.6136   -29.7260 H6            1 Polymer 
    1525 H6         -39.0268    84.3436   -28.3604 H6            1 Polymer 
    1526 H6         -38.7783    83.3179   -26.9253 H6            1 Polymer 
    1527 H6         -37.3573    85.2071   -26.7768 H6            1 Polymer 
    1528 H6         -36.2427    83.8371   -27.1241 H6            1 Polymer 
    1529 H6         -36.1954    84.5528   -29.5254 H6            1 Polymer 
    1530 H6         -37.4032    85.8291   -29.2136 H6            1 Polymer 
    1531 H6         -35.0471    86.6661   -29.4088 H6            1 Polymer 
    1532 H6         -34.6031    85.7949   -27.9114 H6            1 Polymer 
    1533 H6         -36.3231    87.2262   -26.6754 H6            1 Polymer 
    1534 H6         -36.7938    87.9780   -28.2483 H6            1 Polymer 
    1535 H6         -34.4909    88.9045   -28.5163 H6            1 Polymer 
    1536 H6         -34.0094    88.1657   -26.9390 H6            1 Polymer 
    1537 H6         -35.2716    89.4581   -26.9936 H6            1 Polymer 
    1538 H6         -39.6258    77.1707   -26.9213 H6            1 Polymer 
    1539 H6         -40.0800    76.0434   -28.2153 H6            1 Polymer 
    1540 H6         -41.1108    77.6683   -29.5410 H6            1 Polymer 
    1541 H6         -40.7937    78.9929   -28.3563 H6            1 Polymer 
    1542 H6         -42.3353    76.4600   -27.5251 H6            1 Polymer 
    1543 H6         -42.0854    77.9960   -26.6004 H6            1 Polymer 
    1544 H6         -43.4847    77.5006   -29.2445 H6            1 Polymer 
    1545 H6         -43.2256    79.1943   -28.5606 H6            1 Polymer 
    1546 H6         -45.0247    76.9652   -27.4307 H6            1 Polymer 
    1547 H6         -44.7963    78.6250   -26.7327 H6            1 Polymer 
    1548 H6         -45.5375    79.6348   -28.9295 H6            1 Polymer 
    1549 H6         -45.7683    77.9791   -29.6109 H6            1 Polymer 
    1550 H6         -47.5593    77.5320   -27.9363 H6            1 Polymer 
    1551 H6         -47.3304    79.1930   -27.2511 H6            1 Polymer 
    1552 H6         -47.9047    80.1910   -29.4857 H6            1 Polymer 
    1553 H6         -48.1336    78.5342   -30.1683 H6            1 Polymer 
    1554 H6         -49.2345    79.1371   -28.8727 H6            1 Polymer 
    1555 H6         -36.5820    75.9961   -31.0940 H6            1 Polymer 
    1556 H6         -36.2883    74.2530   -31.2547 H6            1 Polymer 
    1557 H6         -34.3950    75.5841   -31.3540 H6            1 Polymer 
    1558 H6         -34.0419    73.8690   -28.8309 H6            1 Polymer 
    1559 H6         -34.1963    73.2851   -30.5225 H6            1 Polymer 
    1560 H6         -31.9470    75.0810   -29.5291 H6            1 Polymer 
    1561 H6         -32.2848    74.7057   -31.2612 H6            1 Polymer 
    1562 H6         -31.4461    72.7444   -29.0576 H6            1 Polymer 
    1563 H6         -31.7636    72.3069   -30.7830 H6            1 Polymer 
    1564 H6         -29.7277    74.4315   -29.8277 H6            1 Polymer 
    1565 H6         -29.9981    73.9453   -31.5401 H6            1 Polymer 
    1566 H6         -28.9259    72.1463   -29.2975 H6            1 Polymer 
    1567 H6         -29.0929    71.6488   -31.0134 H6            1 Polymer 
    1568 H6         -27.4353    73.4402   -31.6821 H6            1 Polymer 
    1569 H6         -27.3939    74.0244   -29.9762 H6            1 Polymer 
    1570 H6         -26.3983    71.2445   -30.8971 H6            1 Polymer 
    1571 H6         -26.4804    71.8474   -29.2271 H6            1 Polymer 
    1572 H6         -24.7472    73.0301   -31.4450 H6            1 Polymer 
    1573 H6         -24.9996    73.8045   -29.8312 H6            1 Polymer 
    1574 H6         -24.1478    71.8224   -28.6454 H6            1 Polymer 
    1575 H6         -23.8687    70.9600   -30.2075 H6            1 Polymer 
    1576 H6         -22.2153    72.7115   -30.8750 H6            1 Polymer 
    1577 H6         -22.5191    73.5995   -29.3247 H6            1 Polymer 
    1578 H6         -21.7766    71.9573   -29.2946 H6            1 Polymer 
    1579 H6         -34.7047    76.6799   -28.4853 H6            1 Polymer 
    1580 H6         -35.2336    77.4326   -30.0335 H6            1 Polymer 
    1581 H6         -32.7590    77.2529   -30.7198 H6            1 Polymer 
    1582 H6         -32.4440    76.9597   -28.9445 H6            1 Polymer 
    1583 H6         -33.7098    79.1120   -28.4467 H6            1 Polymer 
    1584 H6         -33.8919    79.3242   -30.2093 H6            1 Polymer 
    1585 H6         -31.2296    79.2181   -28.6341 H6            1 Polymer 
    1586 H6         -31.3471    79.1088   -30.3793 H6            1 Polymer 
    1587 H6         -30.8483    81.3927   -29.8610 H6            1 Polymer 
    1588 H6         -32.4661    81.2186   -30.6225 H6            1 Polymer 
    1589 H6         -31.8820    81.5956   -27.6204 H6            1 Polymer 
    1590 H6         -33.5335    81.4307   -28.3166 H6            1 Polymer 
    1591 H6         -31.5213    83.6925   -28.9522 H6            1 Polymer 
    1592 H6         -32.9447    83.7846   -27.8514 H6            1 Polymer 
    1593 H6         -33.5215    84.7763   -30.0251 H6            1 Polymer 
    1594 H6         -33.0640    83.2961   -30.9061 H6            1 Polymer 
    1595 H6         -34.4622    83.2448   -29.7754 H6            1 Polymer 
    1596 C0         -41.2642    81.9791   -32.3952 C0            1 Polymer 
    1597 C1         -42.5289    81.7673   -33.1888 C1            1 Polymer 
    1598 C1         -43.4465    81.0759   -32.5170 C1            1 Polymer 
    1599 C1         -42.8675    80.5114   -31.2952 C1            1 Polymer 
    1600 C1         -41.3285    80.6372   -31.6053 C1            1 Polymer 
    1601 C1         -41.0067    79.4244   -32.4144 C1            1 Polymer 
    1602 C1         -41.9419    78.4679   -32.4232 C1            1 Polymer 
    1603 S2         -43.3345    78.8018   -31.3736 S2            1 Polymer 
    1604 C1         -41.7486    77.1268   -33.0109 C1            1 Polymer 
    1605 C1         -40.5704    76.8261   -33.7188 C1            1 Polymer 
    1606 N3         -40.2109    75.5372   -33.9090 N3            1 Polymer 
    1607 C1         -40.8872    74.5344   -33.2920 C1            1 Polymer 
    1608 C1         -42.2337    74.7316   -33.0020 C1            1 Polymer 
    1609 C1         -42.6580    76.0626   -32.7822 C1            1 Polymer 
    1610 N3         -43.9006    76.1828   -32.2419 N3            1 Polymer 
    1611 S2         -44.3907    74.6159   -32.0761 S2            1 Polymer 
    1612 N3         -43.0886    73.7529   -32.6011 N3            1 Polymer 
    1613 S2         -44.7348    80.6371   -33.5079 S2            1 Polymer 
    1614 C1         -44.0842    81.3899   -34.8868 C1            1 Polymer 
    1615 C1         -42.8493    81.9610   -34.5302 C1            1 Polymer 
    1616 C0         -41.3874    83.1055   -31.2770 C0            1 Polymer 
    1617 C0         -42.1939    84.4003   -31.6190 C0            1 Polymer 
    1618 C0         -41.4678    85.6734   -31.0499 C0            1 Polymer 
    1619 C0         -41.8536    86.9842   -31.7682 C0            1 Polymer 
    1620 C0         -41.4510    88.2664   -30.9964 C0            1 Polymer 
    1621 C0         -42.0338    89.5173   -31.6991 C0            1 Polymer 
    1622 C0         -42.1783    90.7632   -30.7942 C0            1 Polymer 
    1623 C0         -40.9217    91.5930   -30.4728 C0            1 Polymer 
    1624 C0         -40.4341    92.3870   -31.6956 C0            1 Polymer 
    1625 C0         -39.3217    93.4084   -31.3814 C0            1 Polymer 
    1626 C0         -39.8370    94.6379   -30.6136 C0            1 Polymer 
    1627 C0         -38.7437    95.6953   -30.4586 C0            1 Polymer 
    1628 C0         -43.6081    84.1956   -30.9434 C0            1 Polymer 
    1629 C0         -44.8064    85.0231   -31.3886 C0            1 Polymer 
    1630 C0         -46.0590    84.6808   -30.5336 C0            1 Polymer 
    1631 C0         -47.2767    85.2408   -31.2491 C0            1 Polymer 
    1632 C0         -48.6469    85.1522   -30.5796 C0            1 Polymer 
    1633 C0         -49.6732    85.7137   -31.5891 C0            1 Polymer 
    1634 C0         -51.1122    85.7082   -31.0795 C0            1 Polymer 
    1635 C0         -52.0474    86.2797   -32.1491 C0            1 Polymer 
    1636 C0         -40.1116    82.2192   -33.4523 C0            1 Polymer 
    1637 C0         -38.5859    82.5024   -33.2330 C0            1 Polymer 
    1638 C0         -37.7323    81.2595   -32.8153 C0            1 Polymer 
    1639 C0         -36.2285    81.4605   -33.1422 C0            1 Polymer 
    1640 C0         -35.2962    80.2398   -33.0301 C0            1 Polymer 
    1641 C0         -33.8647    80.6971   -33.4207 C0            1 Polymer 
    1642 C0         -32.7712    79.6265   -33.2676 C0            1 Polymer 
    1643 C0         -31.3770    80.2368   -33.5519 C0            1 Polymer 
    1644 C0         -30.2294    79.2741   -33.1979 C0            1 Polymer 
    1645 C0         -28.8503    79.9462   -33.3078 C0            1 Polymer 
    1646 C0         -27.7698    79.0733   -32.6472 C0            1 Polymer 
    1647 C0         -26.3875    79.7139   -32.7391 C0            1 Polymer 
    1648 C0         -38.3765    83.8532   -32.4868 C0            1 Polymer 
    1649 C0         -37.0075    84.5100   -32.6095 C0            1 Polymer 
    1650 C0         -37.1071    86.0135   -32.3455 C0            1 Polymer 
    1651 C0         -35.7144    86.6406   -32.4154 C0            1 Polymer 
    1652 C0         -35.7548    88.1544   -32.6093 C0            1 Polymer 
    1653 C0         -36.3811    88.9062   -31.4322 C0            1 Polymer 
    1654 C0         -36.4217    90.4213   -31.6742 C0            1 Polymer 
    1655 C0         -37.3155    90.8010   -32.8561 C0            1 Polymer 
    1656 H4         -40.0469    79.3395   -32.8877 H4            1 Polymer 
    1657 H5         -39.8646    77.5786   -34.0275 H5            1 Polymer 
    1658 H4         -42.2113    82.4905   -35.2222 H4            1 Polymer 
    1659 H6         -41.8150    82.6978   -30.3316 H6            1 Polymer 
    1660 H6         -40.4083    83.3134   -30.8664 H6            1 Polymer 
    1661 H6         -42.2230    84.4693   -32.7276 H6            1 Polymer 
    1662 H6         -40.3678    85.5946   -31.1795 H6            1 Polymer 
    1663 H6         -41.6595    85.7306   -29.9565 H6            1 Polymer 
    1664 H6         -42.9392    87.0263   -31.8869 H6            1 Polymer 
    1665 H6         -41.4160    86.9749   -32.7864 H6            1 Polymer 
    1666 H6         -40.3512    88.3559   -30.8613 H6            1 Polymer 
    1667 H6         -41.9243    88.1844   -29.9940 H6            1 Polymer 
    1668 H6         -43.0844    89.2667   -31.9615 H6            1 Polymer 
    1669 H6         -41.4968    89.7303   -32.6455 H6            1 Polymer 
    1670 H6         -42.9022    91.4571   -31.2780 H6            1 Polymer 
    1671 H6         -42.6470    90.4335   -29.8426 H6            1 Polymer 
    1672 H6         -41.2309    92.3277   -29.7015 H6            1 Polymer 
    1673 H6         -40.1136    90.9597   -30.0483 H6            1 Polymer 
    1674 H6         -40.0728    91.6690   -32.4510 H6            1 Polymer 
    1675 H6         -41.2841    92.9430   -32.1405 H6            1 Polymer 
    1676 H6         -38.9312    93.7862   -32.3433 H6            1 Polymer 
    1677 H6         -38.4812    92.9196   -30.8445 H6            1 Polymer 
    1678 H6         -40.2027    94.3490   -29.6081 H6            1 Polymer 
    1679 H6         -40.6766    95.0977   -31.1816 H6            1 Polymer 
    1680 H6         -38.3746    96.0274   -31.4527 H6            1 Polymer 
    1681 H6         -37.8910    95.2907   -29.8753 H6            1 Polymer 
    1682 H6         -39.1547    96.5815   -29.9299 H6            1 Polymer 
    1683 H6         -43.4877    84.2901   -29.8407 H6            1 Polymer 
    1684 H6         -43.9414    83.1587   -31.1318 H6            1 Polymer 
    1685 H6         -44.9757    84.7776   -32.4607 H6            1 Polymer 
    1686 H6         -44.6562    86.1079   -31.2837 H6            1 Polymer 
    1687 H6         -46.1981    83.5812   -30.4363 H6            1 Polymer 
    1688 H6         -45.9429    85.1211   -29.5193 H6            1 Polymer 
    1689 H6         -47.3510    84.6170   -32.1570 H6            1 Polymer 
    1690 H6         -47.0851    86.3132   -31.4809 H6            1 Polymer 
    1691 H6         -48.8887    84.0944   -30.3388 H6            1 Polymer 
    1692 H6         -48.6529    85.7557   -29.6467 H6            1 Polymer 
    1693 H6         -49.3952    86.7618   -31.8442 H6            1 Polymer 
    1694 H6         -49.6326    85.1052   -32.5213 H6            1 Polymer 
    1695 H6         -51.4225    84.6679   -30.8435 H6            1 Polymer 
    1696 H6         -51.1869    86.3293   -30.1617 H6            1 Polymer 
    1697 H6         -51.7612    87.3254   -32.3971 H6            1 Polymer 
    1698 H6         -51.9966    85.6683   -33.0766 H6            1 Polymer 
    1699 H6         -53.0936    86.2769   -31.7804 H6            1 Polymer 
    1700 H6         -40.4500    83.1175   -34.0138 H6            1 Polymer 
    1701 H6         -40.1534    81.3756   -34.1779 H6            1 Polymer 
    1702 H6         -38.2611    82.7066   -34.2800 H6            1 Polymer 
    1703 H6         -37.9044    80.9918   -31.7570 H6            1 Polymer 
    1704 H6         -38.0600    80.4080   -33.4486 H6            1 Polymer 
    1705 H6         -35.8097    82.2034   -32.4583 H6            1 Polymer 
    1706 H6         -36.1501    81.8267   -34.1895 H6            1 Polymer 
    1707 H6         -35.3112    79.8666   -31.9848 H6            1 Polymer 
    1708 H6         -35.6323    79.4268   -33.7089 H6            1 Polymer 
    1709 H6         -33.5920    81.5503   -32.7614 H6            1 Polymer 
    1710 H6         -33.8653    81.0597   -34.4721 H6            1 Polymer 
    1711 H6         -32.7937    79.2660   -32.2250 H6            1 Polymer 
    1712 H6         -32.9627    78.7629   -33.9391 H6            1 Polymer 
    1713 H6         -31.3029    80.5486   -34.6161 H6            1 Polymer 
    1714 H6         -31.2600    81.1407   -32.9129 H6            1 Polymer 
    1715 H6         -30.2675    78.3552   -33.8201 H6            1 Polymer 
    1716 H6         -30.3486    78.9678   -32.1536 H6            1 Polymer 
    1717 H6         -28.6133    80.1352   -34.3771 H6            1 Polymer 
    1718 H6         -28.8664    80.9197   -32.7682 H6            1 Polymer 
    1719 H6         -28.0188    78.9438   -31.5693 H6            1 Polymer 
    1720 H6         -27.7385    78.0717   -33.1257 H6            1 Polymer 
    1721 H6         -26.0820    79.8172   -33.8011 H6            1 Polymer 
    1722 H6         -26.3873    80.7149   -32.2566 H6            1 Polymer 
    1723 H6         -25.6467    79.0720   -32.2154 H6            1 Polymer 
    1724 H6         -38.5706    83.8026   -31.4119 H6            1 Polymer 
    1725 H6         -39.0984    84.5548   -32.9603 H6            1 Polymer 
    1726 H6         -36.6227    84.3767   -33.6443 H6            1 Polymer 
    1727 H6         -36.3098    84.0810   -31.8690 H6            1 Polymer 
    1728 H6         -37.5802    86.2312   -31.3705 H6            1 Polymer 
    1729 H6         -37.7568    86.4472   -33.1326 H6            1 Polymer 
    1730 H6         -35.1013    86.3397   -31.5480 H6            1 Polymer 
    1731 H6         -35.2099    86.2354   -33.2941 H6            1 Polymer 
    1732 H6         -34.7160    88.5188   -32.7616 H6            1 Polymer 
    1733 H6         -36.3276    88.3455   -33.5372 H6            1 Polymer 
    1734 H6         -35.7719    88.7097   -30.5280 H6            1 Polymer 
    1735 H6         -37.4160    88.5496   -31.2426 H6            1 Polymer 
    1736 H6         -35.3952    90.8128   -31.8436 H6            1 Polymer 
    1737 H6         -36.8317    90.9006   -30.7596 H6            1 Polymer 
    1738 H6         -37.3799    91.9045   -32.9357 H6            1 Polymer 
    1739 H6         -36.9140    90.4277   -33.8181 H6            1 Polymer 
    1740 H6         -38.3267    90.3742   -32.7053 H6            1 Polymer 
    1741 C0         -45.1306    89.0889   -35.3157 C0            1 Polymer 
    1742 C1         -46.3956    88.8752   -36.1080 C1            1 Polymer 
    1743 C1         -47.3107    88.1820   -35.4352 C1            1 Polymer 
    1744 C1         -46.7297    87.6196   -34.2136 C1            1 Polymer 
    1745 C1         -45.1914    87.7468   -34.5257 C1            1 Polymer 
    1746 C1         -44.8693    86.5330   -35.3341 C1            1 Polymer 
    1747 C1         -45.8040    85.5756   -35.3400 C1            1 Polymer 
    1748 S2         -47.1954    85.9103   -34.2898 S2            1 Polymer 
    1749 C1         -45.6123    84.2329   -35.9252 C1            1 Polymer 
    1750 C1         -44.4356    83.9303   -36.6344 C1            1 Polymer 
    1751 N3         -44.0774    82.6405   -36.8228 N3            1 Polymer 
    1752 C1         -44.7530    81.6393   -36.2024 C1            1 Polymer 
    1753 C1         -46.0989    81.8376   -35.9108 C1            1 Polymer 
    1754 C1         -46.5221    83.1693   -35.6930 C1            1 Polymer 
    1755 N3         -47.7635    83.2912   -35.1500 N3            1 Polymer 
    1756 S2         -48.2535    81.7247   -34.9793 S2            1 Polymer 
    1757 N3         -46.9531    80.8602   -35.5056 N3            1 Polymer 
    1758 S2         -48.6028    87.7454   -36.4218 S2            1 Polymer 
    1759 C1         -47.9567    88.5020   -37.8009 C1            1 Polymer 
    1760 C1         -46.7202    89.0718   -37.4476 C1            1 Polymer 
    1761 C0         -45.2565    90.2154   -34.1976 C0            1 Polymer 
    1762 C0         -46.0719    91.5059   -34.5363 C0            1 Polymer 
    1763 C0         -45.3489    92.7822   -33.9698 C0            1 Polymer 
    1764 C0         -45.7461    94.0937   -34.6807 C0            1 Polymer 
    1765 C0         -45.3346    95.3754   -33.9122 C0            1 Polymer 
    1766 C0         -45.9238    96.6272   -34.6083 C0            1 Polymer 
    1767 C0         -46.0615    97.8722   -33.7012 C0            1 Polymer 
    1768 C0         -44.8027    98.7006   -33.3846 C0            1 Polymer 
    1769 C0         -44.3186    99.4954   -34.6083 C0            1 Polymer 
    1770 C0         -43.2051   100.5163   -34.2953 C0            1 Polymer 
    1771 C0         -43.7185   101.7461   -33.5265 C0            1 Polymer 
    1772 C0         -42.6236   102.8018   -33.3704 C0            1 Polymer 
    1773 C0         -47.4837    91.2940   -33.8568 C0            1 Polymer 
    1774 C0         -48.6878    92.1125   -34.3036 C0            1 Polymer 
    1775 C0         -49.9405    91.7636   -33.4510 C0            1 Polymer 
    1776 C0         -51.1585    92.3251   -34.1657 C0            1 Polymer 
    1777 C0         -52.5313    92.2307   -33.5021 C0            1 Polymer 
    1778 C0         -53.5537    92.7991   -34.5122 C0            1 Polymer 
    1779 C0         -54.9955    92.7884   -34.0105 C0            1 Polymer 
    1780 C0         -55.9254    93.3670   -35.0811 C0            1 Polymer 
    1781 C0         -43.9791    89.3312   -36.3734 C0            1 Polymer 
    1782 C0         -42.4535    89.6167   -36.1541 C0            1 Polymer 
    1783 C0         -41.5980    88.3753   -35.7357 C0            1 Polymer 
    1784 C0         -40.0943    88.5782   -36.0623 C0            1 Polymer 
    1785 C0         -39.1602    87.3591   -35.9483 C0            1 Polymer 
    1786 C0         -37.7289    87.8174   -36.3390 C0            1 Polymer 
    1787 C0         -36.6344    86.7481   -36.1838 C0            1 Polymer 
    1788 C0         -35.2406    87.3573   -36.4721 C0            1 Polymer 
    1789 C0         -34.0930    86.3956   -36.1154 C0            1 Polymer 
    1790 C0         -32.7130    87.0637   -36.2361 C0            1 Polymer 
    1791 C0         -31.6314    86.1912   -35.5765 C0            1 Polymer 
    1792 C0         -30.2475    86.8264   -35.6808 C0            1 Polymer 
    1793 C0         -42.2456    90.9684   -35.4086 C0            1 Polymer 
    1794 C0         -40.8776    91.6270   -35.5345 C0            1 Polymer 
    1795 C0         -40.9783    93.1310   -35.2742 C0            1 Polymer 
    1796 C0         -39.5868    93.7600   -35.3510 C0            1 Polymer 
    1797 C0         -39.6308    95.2732   -35.5494 C0            1 Polymer 
    1798 C0         -40.2498    96.0269   -34.3699 C0            1 Polymer 
    1799 C0         -40.2977    97.5410   -34.6165 C0            1 Polymer 
    1800 C0         -41.2051    97.9136   -35.7904 C0            1 Polymer 
    1801 H4         -43.9098    86.4475   -35.8085 H4            1 Polymer 
    1802 H5         -43.7297    84.6818   -36.9457 H5            1 Polymer 
    1803 H4         -46.0849    89.6043   -38.1396 H4            1 Polymer 
    1804 H6         -45.6791    89.8059   -33.2507 H6            1 Polymer 
    1805 H6         -44.2774    90.4288   -33.7900 H6            1 Polymer 
    1806 H6         -46.1052    91.5751   -35.6448 H6            1 Polymer 
    1807 H6         -44.2496    92.7087   -34.1089 H6            1 Polymer 
    1808 H6         -45.5321    92.8355   -32.8747 H6            1 Polymer 
    1809 H6         -46.8331    94.1355   -34.7836 H6            1 Polymer 
    1810 H6         -45.3225    94.0870   -35.7049 H6            1 Polymer 
    1811 H6         -44.2333    95.4646   -33.7892 H6            1 Polymer 
    1812 H6         -45.7968    95.2927   -32.9048 H6            1 Polymer 
    1813 H6         -46.9765    96.3769   -34.8627 H6            1 Polymer 
    1814 H6         -45.3946    96.8414   -35.5587 H6            1 Polymer 
    1815 H6         -46.7872    98.5675   -34.1802 H6            1 Polymer 
    1816 H6         -46.5252    97.5417   -32.7475 H6            1 Polymer 
    1817 H6         -45.1083    99.4348   -32.6114 H6            1 Polymer 
    1818 H6         -43.9935    98.0664   -32.9637 H6            1 Polymer 
    1819 H6         -43.9593    98.7776   -35.3648 H6            1 Polymer 
    1820 H6         -45.1696   100.0518   -35.0514 H6            1 Polymer 
    1821 H6         -42.8158   100.8946   -35.2573 H6            1 Polymer 
    1822 H6         -42.3641   100.0268   -33.7598 H6            1 Polymer 
    1823 H6         -44.0846   101.4573   -32.5211 H6            1 Polymer 
    1824 H6         -44.5572   102.2075   -34.0944 H6            1 Polymer 
    1825 H6         -42.2530   103.1336   -34.3640 H6            1 Polymer 
    1826 H6         -41.7720   102.3958   -32.7865 H6            1 Polymer 
    1827 H6         -43.0336   103.6885   -32.8417 H6            1 Polymer 
    1828 H6         -47.3622    91.3916   -32.7546 H6            1 Polymer 
    1829 H6         -47.8109    90.2548   -34.0419 H6            1 Polymer 
    1830 H6         -48.8546    91.8652   -35.3756 H6            1 Polymer 
    1831 H6         -48.5443    93.1981   -34.1995 H6            1 Polymer 
    1832 H6         -50.0768    90.6633   -33.3585 H6            1 Polymer 
    1833 H6         -49.8270    92.2002   -32.4348 H6            1 Polymer 
    1834 H6         -51.2294    91.7081   -35.0790 H6            1 Polymer 
    1835 H6         -50.9681    93.3997   -34.3884 H6            1 Polymer 
    1836 H6         -52.7733    91.1710   -33.2702 H6            1 Polymer 
    1837 H6         -52.5418    92.8273   -32.5649 H6            1 Polymer 
    1838 H6         -53.2755    93.8495   -34.7577 H6            1 Polymer 
    1839 H6         -53.5078    92.1982   -35.4490 H6            1 Polymer 
    1840 H6         -55.3059    91.7460   -33.7843 H6            1 Polymer 
    1841 H6         -55.0760    93.4024   -33.0885 H6            1 Polymer 
    1842 H6         -55.6392    94.4149   -35.3195 H6            1 Polymer 
    1843 H6         -55.8686    92.7628   -36.0130 H6            1 Polymer 
    1844 H6         -56.9737    93.3602   -34.7185 H6            1 Polymer 
    1845 H6         -44.3192    90.2288   -36.9348 H6            1 Polymer 
    1846 H6         -44.0197    88.4874   -37.0989 H6            1 Polymer 
    1847 H6         -42.1292    89.8208   -37.2012 H6            1 Polymer 
    1848 H6         -41.7699    88.1081   -34.6772 H6            1 Polymer 
    1849 H6         -41.9245    87.5230   -36.3684 H6            1 Polymer 
    1850 H6         -39.6768    89.3224   -35.3790 H6            1 Polymer 
    1851 H6         -40.0161    88.9434   -37.1100 H6            1 Polymer 
    1852 H6         -39.1753    86.9874   -34.9025 H6            1 Polymer 
    1853 H6         -39.4949    86.5447   -36.6260 H6            1 Polymer 
    1854 H6         -37.4569    88.6722   -35.6813 H6            1 Polymer 
    1855 H6         -37.7299    88.1779   -37.3913 H6            1 Polymer 
    1856 H6         -36.6554    86.3911   -35.1403 H6            1 Polymer 
    1857 H6         -36.8264    85.8821   -36.8522 H6            1 Polymer 
    1858 H6         -35.1681    87.6638   -37.5380 H6            1 Polymer 
    1859 H6         -35.1222    88.2641   -35.8376 H6            1 Polymer 
    1860 H6         -34.1352    85.4724   -36.7311 H6            1 Polymer 
    1861 H6         -34.2087    86.0973   -35.0682 H6            1 Polymer 
    1862 H6         -32.4812    87.2456   -37.3077 H6            1 Polymer 
    1863 H6         -32.7239    88.0404   -35.7022 H6            1 Polymer 
    1864 H6         -31.8744    86.0688   -34.4965 H6            1 Polymer 
    1865 H6         -31.6062    85.1867   -36.0494 H6            1 Polymer 
    1866 H6         -29.9483    86.9224   -36.7452 H6            1 Polymer 
    1867 H6         -30.2408    87.8301   -35.2041 H6            1 Polymer 
    1868 H6         -29.5057    86.1848   -35.1581 H6            1 Polymer 
    1869 H6         -42.4386    90.9185   -34.3333 H6            1 Polymer 
    1870 H6         -42.9692    91.6683   -35.8817 H6            1 Polymer 
    1871 H6         -40.4944    91.4921   -36.5698 H6            1 Polymer 
    1872 H6         -40.1778    91.2008   -34.7944 H6            1 Polymer 
    1873 H6         -41.4486    93.3509   -34.2984 H6            1 Polymer 
    1874 H6         -41.6308    93.5611   -36.0611 H6            1 Polymer 
    1875 H6         -38.9690    93.4628   -34.4854 H6            1 Polymer 
    1876 H6         -39.0858    93.3526   -36.2306 H6            1 Polymer 
    1877 H6         -38.5938    95.6390   -35.7101 H6            1 Polymer 
    1878 H6         -40.2101    95.4608   -36.4740 H6            1 Polymer 
    1879 H6         -39.6322    95.8352   -33.4704 H6            1 Polymer 
    1880 H6         -41.2819    95.6677   -34.1701 H6            1 Polymer 
    1881 H6         -39.2743    97.9354   -34.7976 H6            1 Polymer 
    1882 H6         -40.7001    98.0220   -33.6995 H6            1 Polymer 
    1883 H6         -41.2743    99.0166   -35.8726 H6            1 Polymer 
    1884 H6         -40.8124    97.5385   -36.7553 H6            1 Polymer 
    1885 H6         -42.2131    97.4837   -35.6275 H6            1 Polymer 
    1886 C0         -48.9931    96.2158   -38.2351 C0            1 Polymer 
    1887 C1         -50.2593    95.9982   -39.0249 C1            1 Polymer 
    1888 C1         -51.1716    95.3057   -38.3476 C1            1 Polymer 
    1889 C1         -50.5865    94.7489   -37.1251 C1            1 Polymer 
    1890 C1         -49.0496    94.8747   -37.4430 C1            1 Polymer 
    1891 C1         -48.7318    93.6582   -38.2504 C1            1 Polymer 
    1892 C1         -49.6669    92.7010   -38.2480 C1            1 Polymer 
    1893 S2         -51.0512    93.0396   -37.1896 S2            1 Polymer 
    1894 C1         -49.4809    91.3565   -38.8317 C1            1 Polymer 
    1895 C1         -48.3083    91.0498   -39.5448 C1            1 Polymer 
    1896 N3         -47.9546    89.7583   -39.7335 N3            1 Polymer 
    1897 C1         -48.6315    88.7589   -39.1114 C1            1 Polymer 
    1898 C1         -49.9752    88.9625   -38.8125 C1            1 Polymer 
    1899 C1         -50.3928    90.2956   -38.5948 C1            1 Polymer 
    1900 N3         -51.6321    90.4225   -38.0481 N3            1 Polymer 
    1901 S2         -52.1273    88.8581   -37.8737 S2            1 Polymer 
    1902 N3         -50.8316    87.9883   -38.4032 N3            1 Polymer 
    1903 S2         -52.4638    94.8618   -39.3305 S2            1 Polymer 
    1904 C1         -51.8229    95.6149   -40.7138 C1            1 Polymer 
    1905 C1         -50.5868    96.1894   -40.3649 C1            1 Polymer 
    1906 C0         -49.1193    97.3439   -37.1182 C0            1 Polymer 
    1907 C0         -49.9352    98.6336   -37.4586 C0            1 Polymer 
    1908 C0         -49.2139    99.9104   -36.8915 C0            1 Polymer 
    1909 C0         -49.6069   101.2201   -37.6077 C0            1 Polymer 
    1910 C0         -49.1963   102.5033   -36.8413 C0            1 Polymer 
    1911 C0         -49.7753   103.7547   -37.5464 C0            1 Polymer 
    1912 C0         -49.9167   105.0033   -36.6445 C0            1 Polymer 
    1913 C0         -48.6582   105.8297   -36.3203 C0            1 Polymer 
    1914 C0         -48.1652   106.6228   -37.5415 C0            1 Polymer 
    1915 C0         -47.0498   107.6404   -37.2245 C0            1 Polymer 
    1916 C0         -47.5624   108.8720   -36.4582 C0            1 Polymer 
    1917 C0         -46.4662   109.9267   -36.3037 C0            1 Polymer 
    1918 C0         -51.3473    98.4215   -36.7801 C0            1 Polymer 
    1919 C0         -52.5514    99.2408   -37.2256 C0            1 Polymer 
    1920 C0         -53.8030    98.8911   -36.3711 C0            1 Polymer 
    1921 C0         -55.0234    99.4474   -37.0854 C0            1 Polymer 
    1922 C0         -56.3954    99.3507   -36.4202 C0            1 Polymer 
    1923 C0         -57.4209    99.9132   -37.4306 C0            1 Polymer 
    1924 C0         -58.8621    99.8990   -36.9271 C0            1 Polymer 
    1925 C0         -59.7955   100.4725   -37.9975 C0            1 Polymer 
    1926 C0         -47.8439    96.4586   -39.2947 C0            1 Polymer 
    1927 C0         -46.3180    96.7436   -39.0775 C0            1 Polymer 
    1928 C0         -45.4624    95.5014   -38.6617 C0            1 Polymer 
    1929 C0         -43.9604    95.7020   -38.9970 C0            1 Polymer 
    1930 C0         -43.0272    94.4825   -38.8817 C0            1 Polymer 
    1931 C0         -41.5971    94.9385   -39.2781 C0            1 Polymer 
    1932 C0         -40.5028    93.8697   -39.1196 C0            1 Polymer 
    1933 C0         -39.1093    94.4790   -39.4092 C0            1 Polymer 
    1934 C0         -37.9612    93.5198   -39.0484 C0            1 Polymer 
    1935 C0         -36.5821    94.1900   -39.1670 C0            1 Polymer 
    1936 C0         -35.5009    93.3211   -38.5021 C0            1 Polymer 
    1937 C0         -34.1183    93.9596   -38.6021 C0            1 Polymer 
    1938 C0         -46.1079    98.0938   -38.3304 C0            1 Polymer 
    1939 C0         -44.7385    98.7502   -38.4536 C0            1 Polymer 
    1940 C0         -44.8374   100.2536   -38.1905 C0            1 Polymer 
    1941 C0         -43.4456   100.8823   -38.2653 C0            1 Polymer 
    1942 C0         -43.4899   102.3952   -38.4625 C0            1 Polymer 
    1943 C0         -44.1183   103.1480   -37.2872 C0            1 Polymer 
    1944 C0         -44.1672   104.6618   -37.5351 C0            1 Polymer 
    1945 C0         -45.0633   105.0314   -38.7185 C0            1 Polymer 
    1946 H4         -47.7757    93.5717   -38.7313 H4            1 Polymer 
    1947 H5         -47.6011    91.7987   -39.8583 H5            1 Polymer 
    1948 H4         -49.9536    96.7205   -41.0603 H4            1 Polymer 
    1949 H6         -49.5414    96.9359   -36.1706 H6            1 Polymer 
    1950 H6         -48.1403    97.5584   -36.7112 H6            1 Polymer 
    1951 H6         -49.9670    98.7020   -38.5672 H6            1 Polymer 
    1952 H6         -48.1141    99.8361   -37.0260 H6            1 Polymer 
    1953 H6         -49.4016    99.9666   -35.7973 H6            1 Polymer 
    1954 H6         -50.6939   101.2627   -37.7165 H6            1 Polymer 
    1955 H6         -49.1772   101.2091   -38.6291 H6            1 Polymer 
    1956 H6         -48.0956   102.5892   -36.7109 H6            1 Polymer 
    1957 H6         -49.6660   102.4259   -35.8369 H6            1 Polymer 
    1958 H6         -50.8264   103.5065   -37.8085 H6            1 Polymer 
    1959 H6         -49.2371   103.9639   -38.4930 H6            1 Polymer 
    1960 H6         -50.6370   105.6989   -37.1312 H6            1 Polymer 
    1961 H6         -50.3889   104.6768   -35.6935 H6            1 Polymer 
    1962 H6         -48.9669   106.5656   -35.5499 H6            1 Polymer 
    1963 H6         -47.8531   105.1940   -35.8937 H6            1 Polymer 
    1964 H6         -47.8052   105.9039   -38.2965 H6            1 Polymer 
    1965 H6         -49.0122   107.1821   -37.9877 H6            1 Polymer 
    1966 H6         -46.6558   108.0171   -38.1853 H6            1 Polymer 
    1967 H6         -46.2120   107.1490   -36.6859 H6            1 Polymer 
    1968 H6         -47.9299   108.5849   -35.4528 H6            1 Polymer 
    1969 H6         -48.4000   109.3337   -37.0274 H6            1 Polymer 
    1970 H6         -46.0958   110.2565   -37.2983 H6            1 Polymer 
    1971 H6         -45.6148   109.5207   -35.7195 H6            1 Polymer 
    1972 H6         -46.8751   110.8148   -35.7766 H6            1 Polymer 
    1973 H6         -51.2260    98.5183   -35.6778 H6            1 Polymer 
    1974 H6         -51.6747    97.3826   -36.9660 H6            1 Polymer 
    1975 H6         -52.7193    98.9934   -38.2975 H6            1 Polymer 
    1976 H6         -52.4068   100.3265   -37.1221 H6            1 Polymer 
    1977 H6         -53.9369    97.7906   -36.2763 H6            1 Polymer 
    1978 H6         -53.6893    99.3297   -35.3559 H6            1 Polymer 
    1979 H6         -55.0938    98.8264   -37.9958 H6            1 Polymer 
    1980 H6         -54.8363   100.5216   -37.3120 H6            1 Polymer 
    1981 H6         -56.6340    98.2909   -36.1852 H6            1 Polymer 
    1982 H6         -56.4068    99.9498   -35.4846 H6            1 Polymer 
    1983 H6         -57.1465   100.9638   -37.6792 H6            1 Polymer 
    1984 H6         -57.3743    99.3101   -38.3660 H6            1 Polymer 
    1985 H6         -59.1690    98.8561   -36.6983 H6            1 Polymer 
    1986 H6         -58.9434   100.5146   -36.0062 H6            1 Polymer 
    1987 H6         -59.5131   101.5208   -38.2383 H6            1 Polymer 
    1988 H6         -59.7382    99.8667   -38.9283 H6            1 Polymer 
    1989 H6         -60.8433   100.4629   -37.6333 H6            1 Polymer 
    1990 H6         -48.1855    97.3561   -39.8556 H6            1 Polymer 
    1991 H6         -47.8853    95.6146   -40.0198 H6            1 Polymer 
    1992 H6         -45.9955    96.9487   -40.1250 H6            1 Polymer 
    1993 H6         -45.6286    95.2359   -37.6016 H6            1 Polymer 
    1994 H6         -45.7927    94.6484   -39.2915 H6            1 Polymer 
    1995 H6         -43.5387    96.4490   -38.3196 H6            1 Polymer 
    1996 H6         -43.8868    96.0627   -40.0466 H6            1 Polymer 
    1997 H6         -43.0392    94.1152   -37.8343 H6            1 Polymer 
    1998 H6         -43.3649    93.6657   -39.5550 H6            1 Polymer 
    1999 H6         -41.3235    95.7959   -38.6244 H6            1 Polymer 
    2000 H6         -41.5999    95.2948   -40.3317 H6            1 Polymer 
    2001 H6         -40.5244    93.5160   -38.0748 H6            1 Polymer 
    2002 H6         -40.6946    93.0016   -39.7853 H6            1 Polymer 
    2003 H6         -39.0363    94.7826   -40.4759 H6            1 Polymer 
    2004 H6         -38.9924    95.3878   -38.7771 H6            1 Polymer 
    2005 H6         -38.0007    92.5951   -39.6620 H6            1 Polymer 
    2006 H6         -38.0784    93.2240   -38.0008 H6            1 Polymer 
    2007 H6         -36.3475    94.3701   -40.2383 H6            1 Polymer 
    2008 H6         -36.5964    95.1679   -38.6352 H6            1 Polymer 
    2009 H6         -35.7475    93.2000   -37.4227 H6            1 Polymer 
    2010 H6         -35.4717    92.3159   -38.9731 H6            1 Polymer 
    2011 H6         -33.8154    94.0549   -39.6656 H6            1 Polymer 
    2012 H6         -34.1160    94.9641   -38.1269 H6            1 Polymer 
    2013 H6         -33.3769    93.3208   -38.0757 H6            1 Polymer 
    2014 H6         -46.3008    98.0424   -37.2552 H6            1 Polymer 
    2015 H6         -46.8305    98.7955   -38.8025 H6            1 Polymer 
    2016 H6         -44.3545    98.6163   -39.4886 H6            1 Polymer 
    2017 H6         -44.0404    98.3211   -37.7133 H6            1 Polymer 
    2018 H6         -45.3075   100.4716   -37.2139 H6            1 Polymer 
    2019 H6         -45.4896   100.6864   -38.9764 H6            1 Polymer 
    2020 H6         -42.8292   100.5844   -37.3991 H6            1 Polymer 
    2021 H6         -42.9425   100.4775   -39.1450 H6            1 Polymer 
    2022 H6         -42.4524   102.7626   -38.6169 H6            1 Polymer 
    2023 H6         -44.0640   102.5815   -39.3905 H6            1 Polymer 
    2024 H6         -43.5076   102.9572   -36.3827 H6            1 Polymer 
    2025 H6         -45.1514   102.7876   -37.0954 H6            1 Polymer 
    2026 H6         -43.1430   105.0585   -37.7062 H6            1 Polymer 
    2027 H6         -44.5797   105.1420   -36.6222 H6            1 Polymer 
    2028 H6         -45.1349   106.1341   -38.8019 H6            1 Polymer 
    2029 H6         -44.6592   104.6580   -39.6793 H6            1 Polymer 
    2030 H6         -46.0716   104.5979   -38.5669 H6            1 Polymer 
    2031 C0         -52.8635   103.3178   -41.1547 C0            1 Polymer 
    2032 C1         -54.1313   103.1030   -41.9422 C1            1 Polymer 
    2033 C1         -55.0441   102.4126   -41.2637 C1            1 Polymer 
    2034 C1         -54.4589   101.8528   -40.0429 C1            1 Polymer 
    2035 C1         -52.9220   101.9768   -40.3621 C1            1 Polymer 
    2036 C1         -52.6056   100.7596   -41.1685 C1            1 Polymer 
    2037 C1         -53.5423    99.8037   -41.1669 C1            1 Polymer 
    2038 S2         -54.9281   100.1446   -40.1123 S2            1 Polymer 
    2039 C1         -53.3564    98.4584   -41.7483 C1            1 Polymer 
    2040 C1         -52.1853    98.1525   -42.4648 C1            1 Polymer 
    2041 N3         -51.8295    96.8620   -42.6521 N3            1 Polymer 
    2042 C1         -52.5015    95.8628   -42.0244 C1            1 Polymer 
    2043 C1         -53.8448    96.0634   -41.7226 C1            1 Polymer 
    2044 C1         -54.2655    97.3961   -41.5058 C1            1 Polymer 
    2045 N3         -55.5030    97.5205   -40.9545 N3            1 Polymer 
    2046 S2         -55.9934    95.9551   -40.7756 S2            1 Polymer 
    2047 N3         -54.6974    95.0877   -41.3085 N3            1 Polymer 
    2048 S2         -56.3404   101.9740   -42.2438 S2            1 Polymer 
    2049 C1         -55.7006   102.7268   -43.6277 C1            1 Polymer 
    2050 C1         -54.4613   103.2966   -43.2812 C1            1 Polymer 
    2051 C0         -52.9870   104.4465   -40.0378 C0            1 Polymer 
    2052 C0         -53.8032   105.7368   -40.3751 C0            1 Polymer 
    2053 C0         -53.0788   107.0139   -39.8134 C0            1 Polymer 
    2054 C0         -53.4724   108.3217   -40.5332 C0            1 Polymer 
    2055 C0         -53.0683   109.6061   -39.7658 C0            1 Polymer 
    2056 C0         -53.6524   110.8553   -40.4700 C0            1 Polymer 
    2057 C0         -53.7936   112.1034   -39.5678 C0            1 Polymer 
    2058 C0         -52.5344   112.9294   -39.2465 C0            1 Polymer 
    2059 C0         -52.0430   113.7209   -40.4693 C0            1 Polymer 
    2060 C0         -50.9255   114.7367   -40.1546 C0            1 Polymer 
    2061 C0         -51.4339   115.9681   -39.3851 C0            1 Polymer 
    2062 C0         -50.3350   117.0196   -39.2296 C0            1 Polymer 
    2063 C0         -55.2122   105.5272   -39.6889 C0            1 Polymer 
    2064 C0         -56.4137   106.3578   -40.1201 C0            1 Polymer 
    2065 C0         -57.6641   106.0080   -39.2642 C0            1 Polymer 
    2066 C0         -58.8842   106.5711   -39.9744 C0            1 Polymer 
    2067 C0         -60.2562   106.4726   -39.3094 C0            1 Polymer 
    2068 C0         -61.2818   107.0339   -40.3204 C0            1 Polymer 
    2069 C0         -62.7238   107.0153   -39.8194 C0            1 Polymer 
    2070 C0         -63.6571   107.5827   -40.8931 C0            1 Polymer 
    2071 C0         -51.7155   103.5582   -42.2167 C0            1 Polymer 
    2072 C0         -50.1890   103.8432   -42.0026 C0            1 Polymer 
    2073 C0         -49.3334   102.6017   -41.5848 C0            1 Polymer 
    2074 C0         -47.8301   102.8018   -41.9160 C0            1 Polymer 
    2075 C0         -46.8978   101.5813   -41.8000 C0            1 Polymer 
    2076 C0         -45.4659   102.0364   -42.1920 C0            1 Polymer 
    2077 C0         -44.3732   100.9652   -42.0357 C0            1 Polymer 
    2078 C0         -42.9784   101.5734   -42.3213 C0            1 Polymer 
    2079 C0         -41.8312   100.6103   -41.9666 C0            1 Polymer 
    2080 C0         -40.4524   101.2831   -42.0774 C0            1 Polymer 
    2081 C0         -39.3704   100.4121   -41.4168 C0            1 Polymer 
    2082 C0         -37.9890   101.0547   -41.5104 C0            1 Polymer 
    2083 C0         -49.9789   105.1954   -41.2590 C0            1 Polymer 
    2084 C0         -48.6097   105.8514   -41.3824 C0            1 Polymer 
    2085 C0         -48.7089   107.3553   -41.1213 C0            1 Polymer 
    2086 C0         -47.3163   107.9824   -41.1923 C0            1 Polymer 
    2087 C0         -47.3573   109.4956   -41.3907 C0            1 Polymer 
    2088 C0         -47.9832   110.2506   -40.2155 C0            1 Polymer 
    2089 C0         -48.0269   111.7647   -40.4630 C0            1 Polymer 
    2090 C0         -48.9248   112.1386   -41.6437 C0            1 Polymer 
    2091 H4         -51.6484   100.6710   -41.6470 H4            1 Polymer 
    2092 H5         -51.4814    98.9029   -42.7830 H5            1 Polymer 
    2093 H4         -53.8279   103.8265   -43.9772 H4            1 Polymer 
    2094 H6         -53.4074   104.0377   -39.0898 H6            1 Polymer 
    2095 H6         -52.0078   104.6603   -39.6315 H6            1 Polymer 
    2096 H6         -53.8409   105.8048   -41.4835 H6            1 Polymer 
    2097 H6         -51.9792   106.9385   -39.9491 H6            1 Polymer 
    2098 H6         -53.2648   107.0731   -38.7190 H6            1 Polymer 
    2099 H6         -54.5589   108.3614   -40.6477 H6            1 Polymer 
    2100 H6         -53.0397   108.3112   -41.5535 H6            1 Polymer 
    2101 H6         -51.9681   109.6963   -39.6342 H6            1 Polymer 
    2102 H6         -53.5386   109.5266   -38.7618 H6            1 Polymer 
    2103 H6         -54.7036   110.6046   -40.7298 H6            1 Polymer 
    2104 H6         -53.1166   111.0656   -41.4177 H6            1 Polymer 
    2105 H6         -54.5152   112.7988   -40.0530 H6            1 Polymer 
    2106 H6         -54.2635   111.7766   -38.6158 H6            1 Polymer 
    2107 H6         -52.8413   113.6657   -38.4758 H6            1 Polymer 
    2108 H6         -51.7288   112.2935   -38.8210 H6            1 Polymer 
    2109 H6         -51.6852   113.0011   -41.2248 H6            1 Polymer 
    2110 H6         -52.8904   114.2812   -40.9141 H6            1 Polymer 
    2111 H6         -50.5337   115.1135   -41.1163 H6            1 Polymer 
    2112 H6         -50.0872   114.2433   -39.6187 H6            1 Polymer 
    2113 H6         -51.8003   115.6799   -38.3795 H6            1 Polymer 
    2114 H6         -52.2715   116.4328   -39.9518 H6            1 Polymer 
    2115 H6         -49.9647   117.3507   -40.2237 H6            1 Polymer 
    2116 H6         -49.4840   116.6099   -38.6474 H6            1 Polymer 
    2117 H6         -50.7409   117.9074   -38.6998 H6            1 Polymer 
    2118 H6         -55.0838   105.6166   -38.5867 H6            1 Polymer 
    2119 H6         -55.5456   104.4912   -39.8805 H6            1 Polymer 
    2120 H6         -56.5870   106.1214   -41.1935 H6            1 Polymer 
    2121 H6         -56.2625   107.4417   -40.0055 H6            1 Polymer 
    2122 H6         -57.8015   104.9075   -39.1750 H6            1 Polymer 
    2123 H6         -57.5468   106.4407   -38.2468 H6            1 Polymer 
    2124 H6         -58.9561   105.9540   -40.8871 H6            1 Polymer 
    2125 H6         -58.6958   107.6459   -40.1977 H6            1 Polymer 
    2126 H6         -60.4937   105.4123   -39.0758 H6            1 Polymer 
    2127 H6         -60.2687   107.0706   -38.3730 H6            1 Polymer 
    2128 H6         -61.0095   108.0852   -40.5684 H6            1 Polymer 
    2129 H6         -61.2326   106.4310   -41.2558 H6            1 Polymer 
    2130 H6         -63.0273   105.9716   -39.5895 H6            1 Polymer 
    2131 H6         -62.8092   107.6322   -38.8998 H6            1 Polymer 
    2132 H6         -63.3782   108.6314   -41.1361 H6            1 Polymer 
    2133 H6         -63.5955   106.9747   -41.8222 H6            1 Polymer 
    2134 H6         -64.7057   107.5698   -40.5312 H6            1 Polymer 
    2135 H6         -52.0571   104.4550   -42.7784 H6            1 Polymer 
    2136 H6         -51.7587   102.7131   -42.9406 H6            1 Polymer 
    2137 H6         -49.8669   104.0459   -43.0507 H6            1 Polymer 
    2138 H6         -49.5023   102.3367   -40.5253 H6            1 Polymer 
    2139 H6         -49.6627   101.7485   -42.2150 H6            1 Polymer 
    2140 H6         -47.4099   103.5478   -41.2363 H6            1 Polymer 
    2141 H6         -47.7538   103.1638   -42.9649 H6            1 Polymer 
    2142 H6         -46.9125   101.2118   -40.7534 H6            1 Polymer 
    2143 H6         -47.2344   100.7661   -42.4757 H6            1 Polymer 
    2144 H6         -45.1924   102.8913   -41.5353 H6            1 Polymer 
    2145 H6         -45.4663   102.3958   -43.2446 H6            1 Polymer 
    2146 H6         -44.3958   100.6079   -40.9921 H6            1 Polymer 
    2147 H6         -44.5654   100.0999   -42.7048 H6            1 Polymer 
    2148 H6         -42.9042   101.8836   -43.3860 H6            1 Polymer 
    2149 H6         -42.8607   102.4780   -41.6836 H6            1 Polymer 
    2150 H6         -41.8692    99.6913   -42.5887 H6            1 Polymer 
    2151 H6         -41.9507   100.3033   -40.9222 H6            1 Polymer 
    2152 H6         -40.2161   101.4717   -43.1469 H6            1 Polymer 
    2153 H6         -40.4690   102.2570   -41.5385 H6            1 Polymer 
    2154 H6         -39.6185   100.2834   -40.3386 H6            1 Polymer 
    2155 H6         -39.3381    99.4101   -41.8945 H6            1 Polymer 
    2156 H6         -37.6844   101.1574   -42.5727 H6            1 Polymer 
    2157 H6         -37.9900   102.0563   -41.0291 H6            1 Polymer 
    2158 H6         -37.2468   100.4146   -40.9866 H6            1 Polymer 
    2159 H6         -50.1724   105.1468   -40.1841 H6            1 Polymer 
    2160 H6         -50.7011   105.8963   -41.7330 H6            1 Polymer 
    2161 H6         -48.2245   105.7160   -42.4169 H6            1 Polymer 
    2162 H6         -47.9125   105.4232   -40.6407 H6            1 Polymer 
    2163 H6         -49.1823   107.5752   -40.1470 H6            1 Polymer 
    2164 H6         -49.3583   107.7873   -41.9098 H6            1 Polymer 
    2165 H6         -46.7032   107.6842   -40.3239 H6            1 Polymer 
    2166 H6         -46.8115   107.5746   -42.0695 H6            1 Polymer 
    2167 H6         -46.3189   109.8602   -41.5449 H6            1 Polymer 
    2168 H6         -47.9306   109.6836   -42.3189 H6            1 Polymer 
    2169 H6         -47.3721   110.0584   -39.3116 H6            1 Polymer 
    2170 H6         -49.0172   109.8931   -40.0228 H6            1 Polymer 
    2171 H6         -47.0015   112.1573   -40.6366 H6            1 Polymer 
    2172 H6         -48.4351   112.2466   -39.5490 H6            1 Polymer 
    2173 H6         -48.9909   113.2417   -41.7272 H6            1 Polymer 
    2174 H6         -48.5258   111.7622   -42.6055 H6            1 Polymer 
    2175 H6         -49.9351   111.7113   -41.4883 H6            1 Polymer 
    2176 C0         -56.7272   110.4347   -44.0766 C0            1 Polymer 
    2177 C1         -57.9961   110.2151   -44.8602 C1            1 Polymer 
    2178 C1         -58.9065   109.5259   -44.1773 C1            1 Polymer 
    2179 C1         -58.3195   108.9767   -42.9525 C1            1 Polymer 
    2180 C1         -56.7830   109.0996   -43.2744 C1            1 Polymer 
    2181 C1         -56.4685   107.8789   -44.0759 C1            1 Polymer 
    2182 C1         -57.4015   106.9208   -44.0661 C1            1 Polymer 
    2183 S2         -58.7855   107.2677   -43.0063 S2            1 Polymer 
    2184 C1         -57.2199   105.5807   -44.6556 C1            1 Polymer 
    2185 C1         -56.0579   105.2702   -45.3816 C1            1 Polymer 
    2186 N3         -55.7054   103.9793   -45.5655 N3            1 Polymer 
    2187 C1         -56.3807   102.9820   -44.9355 C1            1 Polymer 
    2188 C1         -57.7234   103.1843   -44.6320 C1            1 Polymer 
    2189 C1         -58.1340   104.5189   -44.4092 C1            1 Polymer 
    2190 N3         -59.3700   104.6469   -43.8509 N3            1 Polymer 
    2191 S2         -59.8671   103.0833   -43.6758 S2            1 Polymer 
    2192 N3         -58.5777   102.2112   -44.2172 N3            1 Polymer 
    2193 S2         -60.2064   109.0854   -45.1517 S2            1 Polymer 
    2194 C1         -59.5692   109.8351   -46.5391 C1            1 Polymer 
    2195 C1         -58.3300   110.4053   -46.1981 C1            1 Polymer 
    2196 C0         -56.8480   111.5711   -42.9680 C0            1 Polymer 
    2197 C0         -57.6515   112.8647   -43.3217 C0            1 Polymer 
    2198 C0         -56.9296   114.1391   -42.7501 C0            1 Polymer 
    2199 C0         -57.3136   115.4496   -43.4699 C0            1 Polymer 
    2200 C0         -56.9142   116.7318   -42.6965 C0            1 Polymer 
    2201 C0         -57.4957   117.9831   -43.4000 C0            1 Polymer 
    2202 C0         -57.6421   119.2281   -42.4942 C0            1 Polymer 
    2203 C0         -56.3860   120.0570   -42.1682 C0            1 Polymer 
    2204 C0         -55.8950   120.8533   -43.3882 C0            1 Polymer 
    2205 C0         -54.7832   121.8739   -43.0691 C0            1 Polymer 
    2206 C0         -55.3010   123.1018   -42.3004 C0            1 Polymer 
    2207 C0         -54.2105   124.1621   -42.1469 C0            1 Polymer 
    2208 C0         -59.0707   112.6624   -42.6568 C0            1 Polymer 
    2209 C0         -60.2674   113.4863   -43.1131 C0            1 Polymer 
    2210 C0         -61.5235   113.1396   -42.2658 C0            1 Polymer 
    2211 C0         -62.7393   113.6976   -42.9849 C0            1 Polymer 
    2212 C0         -64.1096   113.5977   -42.3162 C0            1 Polymer 
    2213 C0         -65.1412   114.1580   -43.3204 C0            1 Polymer 
    2214 C0         -66.5787   114.1412   -42.8065 C0            1 Polymer 
    2215 C0         -67.5209   114.7124   -43.8700 C0            1 Polymer 
    2216 C0         -55.5814   110.6677   -45.1423 C0            1 Polymer 
    2217 C0         -54.0547   110.9516   -44.9307 C0            1 Polymer 
    2218 C0         -53.2004   109.7096   -44.5117 C0            1 Polymer 
    2219 C0         -51.6971   109.9112   -44.8393 C0            1 Polymer 
    2220 C0         -50.7635   108.6917   -44.7275 C0            1 Polymer 
    2221 C0         -49.3329   109.1516   -45.1183 C0            1 Polymer 
    2222 C0         -48.2370   108.0839   -44.9631 C0            1 Polymer 
    2223 C0         -46.8445   108.6962   -45.2512 C0            1 Polymer 
    2224 C0         -45.6951   107.7380   -44.8915 C0            1 Polymer 
    2225 C0         -44.3169   108.4101   -45.0092 C0            1 Polymer 
    2226 C0         -43.2351   107.5429   -44.3430 C0            1 Polymer 
    2227 C0         -41.8529   108.1823   -44.4434 C0            1 Polymer 
    2228 C0         -53.8422   112.3045   -44.1892 C0            1 Polymer 
    2229 C0         -52.4741   112.9618   -44.3176 C0            1 Polymer 
    2230 C0         -52.5738   114.4646   -44.0521 C0            1 Polymer 
    2231 C0         -51.1819   115.0930   -44.1246 C0            1 Polymer 
    2232 C0         -51.2255   116.6068   -44.3160 C0            1 Polymer 
    2233 C0         -51.8487   117.3554   -43.1353 C0            1 Polymer 
    2234 C0         -51.8988   118.8701   -43.3770 C0            1 Polymer 
    2235 C0         -52.8032   119.2442   -44.5526 C0            1 Polymer 
    2236 H4         -55.5139   107.7895   -44.5600 H4            1 Polymer 
    2237 H5         -55.3459   106.0204   -45.6948 H5            1 Polymer 
    2238 H4         -57.7004   110.9359   -46.8967 H4            1 Polymer 
    2239 H6         -57.2764   111.1738   -42.0185 H6            1 Polymer 
    2240 H6         -55.8681   111.7810   -42.5616 H6            1 Polymer 
    2241 H6         -57.6710   112.9301   -44.4307 H6            1 Polymer 
    2242 H6         -55.8288   114.0610   -42.8750 H6            1 Polymer 
    2243 H6         -57.1265   114.1963   -41.6576 H6            1 Polymer 
    2244 H6         -58.3988   115.4913   -43.5917 H6            1 Polymer 
    2245 H6         -56.8723   115.4407   -44.4865 H6            1 Polymer 
    2246 H6         -55.8148   116.8218   -42.5585 H6            1 Polymer 
    2247 H6         -57.3902   116.6491   -41.6955 H6            1 Polymer 
    2248 H6         -58.5458   117.7327   -43.6652 H6            1 Polymer 
    2249 H6         -56.9565   118.1971   -44.3450 H6            1 Polymer 
    2250 H6         -58.3646   119.9229   -42.9788 H6            1 Polymer 
    2251 H6         -58.1134   118.8975   -41.5441 H6            1 Polymer 
    2252 H6         -56.6967   120.7904   -41.3963 H6            1 Polymer 
    2253 H6         -55.5792   119.4226   -41.7429 H6            1 Polymer 
    2254 H6         -55.5325   120.1372   -44.1447 H6            1 Polymer 
    2255 H6         -56.7434   121.4108   -43.8341 H6            1 Polymer 
    2256 H6         -54.3902   122.2537   -44.0291 H6            1 Polymer 
    2257 H6         -53.9435   121.3845   -42.5314 H6            1 Polymer 
    2258 H6         -55.6654   122.8113   -41.2947 H6            1 Polymer 
    2259 H6         -56.1422   123.5598   -42.8672 H6            1 Polymer 
    2260 H6         -53.8446   124.4951   -43.1421 H6            1 Polymer 
    2261 H6         -53.3555   123.7599   -41.5652 H6            1 Polymer 
    2262 H6         -54.6232   125.0472   -41.6177 H6            1 Polymer 
    2263 H6         -58.9588   112.7604   -41.5536 H6            1 Polymer 
    2264 H6         -59.4020   111.6253   -42.8434 H6            1 Polymer 
    2265 H6         -60.4297   113.2398   -44.1863 H6            1 Polymer 
    2266 H6         -60.1215   114.5717   -43.0078 H6            1 Polymer 
    2267 H6         -61.6603   112.0394   -42.1718 H6            1 Polymer 
    2268 H6         -61.4139   113.5775   -41.2497 H6            1 Polymer 
    2269 H6         -62.8058   113.0789   -43.8970 H6            1 Polymer 
    2270 H6         -62.5520   114.7720   -43.2109 H6            1 Polymer 
    2271 H6         -64.3450   112.5372   -42.0807 H6            1 Polymer 
    2272 H6         -64.1186   114.1960   -41.3800 H6            1 Polymer 
    2273 H6         -64.8699   115.2090   -43.5708 H6            1 Polymer 
    2274 H6         -65.0995   113.5539   -44.2552 H6            1 Polymer 
    2275 H6         -66.8819   113.0978   -42.5749 H6            1 Polymer 
    2276 H6         -66.6545   114.7570   -41.8852 H6            1 Polymer 
    2277 H6         -67.2423   115.7612   -44.1131 H6            1 Polymer 
    2278 H6         -67.4694   114.1062   -44.8008 H6            1 Polymer 
    2279 H6         -68.5659   114.7009   -43.4978 H6            1 Polymer 
    2280 H6         -55.9227   111.5622   -45.7080 H6            1 Polymer 
    2281 H6         -55.6271   109.8194   -45.8623 H6            1 Polymer 
    2282 H6         -53.7337   111.1522   -45.9795 H6            1 Polymer 
    2283 H6         -53.3711   109.4431   -43.4527 H6            1 Polymer 
    2284 H6         -53.5285   108.8571   -45.1436 H6            1 Polymer 
    2285 H6         -51.2791   110.6534   -44.1545 H6            1 Polymer 
    2286 H6         -51.6193   110.2780   -45.8865 H6            1 Polymer 
    2287 H6         -50.7781   108.3185   -43.6823 H6            1 Polymer 
    2288 H6         -51.0984   107.8783   -45.4064 H6            1 Polymer 
    2289 H6         -49.0618   110.0063   -44.4602 H6            1 Polymer 
    2290 H6         -49.3342   109.5127   -46.1703 H6            1 Polymer 
    2291 H6         -48.2576   107.7272   -43.9193 H6            1 Polymer 
    2292 H6         -48.4272   107.2175   -45.6313 H6            1 Polymer 
    2293 H6         -46.7717   109.0016   -46.3174 H6            1 Polymer 
    2294 H6         -46.7290   109.6041   -44.6178 H6            1 Polymer 
    2295 H6         -45.7333   106.8139   -45.5059 H6            1 Polymer 
    2296 H6         -45.8125   107.4410   -43.8443 H6            1 Polymer 
    2297 H6         -44.0818   108.5900   -46.0805 H6            1 Polymer 
    2298 H6         -44.3326   109.3882   -44.4780 H6            1 Polymer 
    2299 H6         -43.4821   107.4229   -43.2636 H6            1 Polymer 
    2300 H6         -43.2049   106.5371   -44.8128 H6            1 Polymer 
    2301 H6         -41.5496   108.2761   -45.5069 H6            1 Polymer 
    2302 H6         -41.8516   109.1875   -43.9698 H6            1 Polymer 
    2303 H6         -41.1113   107.5448   -43.9156 H6            1 Polymer 
    2304 H6         -54.0306   112.2556   -43.1134 H6            1 Polymer 
    2305 H6         -54.5665   113.0047   -44.6610 H6            1 Polymer 
    2306 H6         -52.0930   112.8287   -45.3539 H6            1 Polymer 
    2307 H6         -51.7732   112.5345   -43.5793 H6            1 Polymer 
    2308 H6         -53.0439   114.6805   -43.0753 H6            1 Polymer 
    2309 H6         -53.2264   114.8986   -44.8370 H6            1 Polymer 
    2310 H6         -50.5658   114.7918   -43.2591 H6            1 Polymer 
    2311 H6         -50.6796   114.6894   -45.0052 H6            1 Polymer 
    2312 H6         -50.1882   116.9738   -44.4723 H6            1 Polymer 
    2313 H6         -51.8023   116.7976   -45.2413 H6            1 Polymer 
    2314 H6         -51.2334   117.1616   -42.2348 H6            1 Polymer 
    2315 H6         -52.8809   116.9942   -42.9397 H6            1 Polymer 
    2316 H6         -50.8756   119.2672   -43.5535 H6            1 Polymer 
    2317 H6         -52.3052   119.3472   -42.4597 H6            1 Polymer 
    2318 H6         -52.8747   120.3473   -44.6317 H6            1 Polymer 
    2319 H6         -52.4064   118.8736   -45.5175 H6            1 Polymer 
    2320 H6         -53.8106   118.8108   -44.3944 H6            1 Polymer 
    2321 C0         -60.6222   117.5507   -47.0365 C0            1 Polymer 
    2322 C1         -61.8823   117.3482   -47.8413 C1            1 Polymer 
    2323 C1         -62.8108   116.6654   -47.1761 C1            1 Polymer 
    2324 C1         -62.2479   116.0998   -45.9481 C1            1 Polymer 
    2325 C1         -60.7058   116.2105   -46.2466 C1            1 Polymer 
    2326 C1         -60.3872   114.9911   -47.0458 C1            1 Polymer 
    2327 C1         -61.3291   114.0408   -47.0532 C1            1 Polymer 
    2328 S2         -62.7324   114.3955   -46.0232 S2            1 Polymer 
    2329 C1         -61.1307   112.6900   -47.6166 C1            1 Polymer 
    2330 C1         -59.9518   112.3814   -48.3192 C1            1 Polymer 
    2331 N3         -59.5813   111.0912   -48.4759 N3            1 Polymer 
    2332 C1         -60.2534   110.0963   -47.8420 C1            1 Polymer 
    2333 C1         -61.5986   110.2921   -47.5424 C1            1 Polymer 
    2334 C1         -62.0312   111.6258   -47.3564 C1            1 Polymer 
    2335 N3         -63.2694   111.7513   -46.8077 N3            1 Polymer 
    2336 S2         -63.7460   110.1870   -46.5926 S2            1 Polymer 
    2337 N3         -62.4426   109.3196   -47.1068 N3            1 Polymer 
    2338 S2         -64.0935   116.2335   -48.1758 S2            1 Polymer 
    2339 C1         -63.4275   116.9789   -49.5511 C1            1 Polymer 
    2340 C1         -62.1909   117.5418   -49.1864 C1            1 Polymer 
    2341 C0         -60.7420   118.6756   -45.9159 C0            1 Polymer 
    2342 C0         -61.5499   119.9708   -46.2504 C0            1 Polymer 
    2343 C0         -60.8226   121.2424   -45.6789 C0            1 Polymer 
    2344 C0         -61.2118   122.5554   -46.3911 C0            1 Polymer 
    2345 C0         -60.8036   123.8366   -45.6197 C0            1 Polymer 
    2346 C0         -61.3836   125.0893   -46.3219 C0            1 Polymer 
    2347 C0         -61.5278   126.3358   -45.4176 C0            1 Polymer 
    2348 C0         -60.2716   127.1659   -45.0937 C0            1 Polymer 
    2349 C0         -59.7817   127.9610   -46.3148 C0            1 Polymer 
    2350 C0         -58.6691   128.9817   -45.9982 C0            1 Polymer 
    2351 C0         -59.1850   130.2126   -45.2331 C0            1 Polymer 
    2352 C0         -58.0913   131.2700   -45.0790 C0            1 Polymer 
    2353 C0         -62.9612   119.7624   -45.5702 C0            1 Polymer 
    2354 C0         -64.1623   120.5859   -46.0129 C0            1 Polymer 
    2355 C0         -65.4130   120.2359   -45.1581 C0            1 Polymer 
    2356 C0         -66.6331   120.7923   -45.8719 C0            1 Polymer 
    2357 C0         -68.0031   120.6947   -45.2039 C0            1 Polymer 
    2358 C0         -69.0301   121.2562   -46.2126 C0            1 Polymer 
    2359 C0         -70.4696   121.2435   -45.7048 C0            1 Polymer 
    2360 C0         -71.4050   121.8167   -46.7733 C0            1 Polymer 
    2361 C0         -59.4602   117.7835   -48.0848 C0            1 Polymer 
    2362 C0         -57.9352   118.0658   -47.8580 C0            1 Polymer 
    2363 C0         -57.0833   116.8226   -47.4383 C0            1 Polymer 
    2364 C0         -55.5783   117.0286   -47.7572 C0            1 Polymer 
    2365 C0         -54.6411   115.8114   -47.6509 C0            1 Polymer 
    2366 C0         -53.2113   116.2790   -48.0362 C0            1 Polymer 
    2367 C0         -52.1120   115.2133   -47.8911 C0            1 Polymer 
    2368 C0         -50.7213   115.8332   -48.1719 C0            1 Polymer 
    2369 C0         -49.5688   114.8739   -47.8254 C0            1 Polymer 
    2370 C0         -48.1930   115.5533   -47.9312 C0            1 Polymer 
    2371 C0         -47.1085   114.6807   -47.2765 C0            1 Polymer 
    2372 C0         -45.7288   115.3274   -47.3648 C0            1 Polymer 
    2373 C0         -57.7270   119.4170   -47.1112 C0            1 Polymer 
    2374 C0         -56.3589   120.0769   -47.2328 C0            1 Polymer 
    2375 C0         -56.4623   121.5800   -46.9688 C0            1 Polymer 
    2376 C0         -55.0712   122.2113   -47.0348 C0            1 Polymer 
    2377 C0         -55.1159   123.7251   -47.2280 C0            1 Polymer 
    2378 C0         -55.7533   124.4748   -46.0555 C0            1 Polymer 
    2379 C0         -55.8006   125.9894   -46.2995 C0            1 Polymer 
    2380 C0         -56.6852   126.3627   -47.4905 C0            1 Polymer 
    2381 H4         -59.4213   114.8945   -47.5055 H4            1 Polymer 
    2382 H5         -59.2503   113.1312   -48.6455 H5            1 Polymer 
    2383 H4         -61.5439   118.0646   -49.8752 H4            1 Polymer 
    2384 H6         -61.1652   118.2663   -44.9690 H6            1 Polymer 
    2385 H6         -59.7629   118.8812   -45.5053 H6            1 Polymer 
    2386 H6         -61.5826   120.0431   -47.3586 H6            1 Polymer 
    2387 H6         -59.7231   121.1644   -45.8132 H6            1 Polymer 
    2388 H6         -61.0100   121.2958   -44.5845 H6            1 Polymer 
    2389 H6         -62.2984   122.5986   -46.5029 H6            1 Polymer 
    2390 H6         -60.7796   122.5477   -47.4115 H6            1 Polymer 
    2391 H6         -59.7032   123.9232   -45.4872 H6            1 Polymer 
    2392 H6         -61.2748   123.7555   -44.6163 H6            1 Polymer 
    2393 H6         -62.4343   124.8403   -46.5853 H6            1 Polymer 
    2394 H6         -60.8455   125.3013   -47.2679 H6            1 Polymer 
    2395 H6         -62.2504   127.0301   -45.9027 H6            1 Polymer 
    2396 H6         -61.9983   126.0066   -44.4668 H6            1 Polymer 
    2397 H6         -60.5819   127.9005   -44.3226 H6            1 Polymer 
    2398 H6         -59.4642   126.5324   -44.6681 H6            1 Polymer 
    2399 H6         -59.4198   127.2436   -47.0701 H6            1 Polymer 
    2400 H6         -60.6307   128.5178   -46.7606 H6            1 Polymer 
    2401 H6         -58.2759   129.3589   -46.9591 H6            1 Polymer 
    2402 H6         -57.8301   128.4929   -45.4593 H6            1 Polymer 
    2403 H6         -59.5524   129.9253   -44.2276 H6            1 Polymer 
    2404 H6         -60.0234   130.6720   -45.8030 H6            1 Polymer 
    2405 H6         -57.7209   131.5996   -46.0736 H6            1 Polymer 
    2406 H6         -57.2393   130.8664   -44.4940 H6            1 Polymer 
    2407 H6         -58.5024   132.1577   -44.5530 H6            1 Polymer 
    2408 H6         -62.8382   119.8561   -44.4678 H6            1 Polymer 
    2409 H6         -63.2926   118.7251   -45.7581 H6            1 Polymer 
    2410 H6         -64.3311   120.3409   -47.0852 H6            1 Polymer 
    2411 H6         -64.0155   121.6712   -45.9071 H6            1 Polymer 
    2412 H6         -65.5474   119.1354   -45.0638 H6            1 Polymer 
    2413 H6         -65.2986   120.6738   -44.1427 H6            1 Polymer 
    2414 H6         -66.7048   120.1714   -46.7822 H6            1 Polymer 
    2415 H6         -66.4463   121.8664   -46.0992 H6            1 Polymer 
    2416 H6         -68.2405   119.6348   -44.9679 H6            1 Polymer 
    2417 H6         -68.0125   121.2943   -44.2685 H6            1 Polymer 
    2418 H6         -68.7557   122.3063   -46.4631 H6            1 Polymer 
    2419 H6         -68.9859   120.6518   -47.1473 H6            1 Polymer 
    2420 H6         -70.7766   120.2011   -45.4738 H6            1 Polymer 
    2421 H6         -70.5474   121.8604   -44.7845 H6            1 Polymer 
    2422 H6         -71.1215   122.8642   -47.0164 H6            1 Polymer 
    2423 H6         -71.3510   121.2094   -47.7033 H6            1 Polymer 
    2424 H6         -72.4517   121.8093   -46.4060 H6            1 Polymer 
    2425 H6         -59.7922   118.6821   -48.6496 H6            1 Polymer 
    2426 H6         -59.4998   116.9383   -48.8089 H6            1 Polymer 
    2427 H6         -57.6064   118.2701   -48.9037 H6            1 Polymer 
    2428 H6         -57.2603   116.5525   -46.3814 H6            1 Polymer 
    2429 H6         -57.4081   115.9719   -48.0745 H6            1 Polymer 
    2430 H6         -55.1652   117.7679   -47.0658 H6            1 Polymer 
    2431 H6         -55.4967   117.4020   -48.8018 H6            1 Polymer 
    2432 H6         -54.6565   115.4307   -46.6083 H6            1 Polymer 
    2433 H6         -54.9719   115.0019   -48.3364 H6            1 Polymer 
    2434 H6         -52.9435   117.1286   -47.3703 H6            1 Polymer 
    2435 H6         -53.2127   116.6496   -49.0849 H6            1 Polymer 
    2436 H6         -52.1320   114.8452   -46.8512 H6            1 Polymer 
    2437 H6         -52.2992   114.3537   -48.5689 H6            1 Polymer 
    2438 H6         -50.6494   116.1529   -49.2340 H6            1 Polymer 
    2439 H6         -50.6086   116.7333   -47.5268 H6            1 Polymer 
    2440 H6         -49.6028   113.9592   -48.4541 H6            1 Polymer 
    2441 H6         -49.6863   114.5595   -46.7833 H6            1 Polymer 
    2442 H6         -47.9572   115.7504   -48.9992 H6            1 Polymer 
    2443 H6         -48.2133   116.5231   -47.3851 H6            1 Polymer 
    2444 H6         -47.3566   114.5434   -46.1994 H6            1 Polymer 
    2445 H6         -47.0733   113.6823   -47.7614 H6            1 Polymer 
    2446 H6         -45.4241   115.4385   -48.4262 H6            1 Polymer 
    2447 H6         -45.7325   116.3253   -46.8761 H6            1 Polymer 
    2448 H6         -44.9854   114.6851   -46.8454 H6            1 Polymer 
    2449 H6         -57.9209   119.3656   -46.0361 H6            1 Polymer 
    2450 H6         -58.4494   120.1178   -47.5847 H6            1 Polymer 
    2451 H6         -55.9723   119.9445   -48.2670 H6            1 Polymer 
    2452 H6         -55.6607   119.6503   -46.4913 H6            1 Polymer 
    2453 H6         -56.9382   121.7957   -45.9946 H6            1 Polymer 
    2454 H6         -57.1115   122.0125   -47.7572 H6            1 Polymer 
    2455 H6         -54.4604   121.9119   -46.1653 H6            1 Polymer 
    2456 H6         -54.5621   121.8089   -47.9124 H6            1 Polymer 
    2457 H6         -54.0778   124.0938   -47.3743 H6            1 Polymer 
    2458 H6         -55.6840   123.9133   -48.1592 H6            1 Polymer 
    2459 H6         -55.1496   124.2823   -45.1467 H6            1 Polymer 
    2460 H6         -56.7878   124.1135   -45.8730 H6            1 Polymer 
    2461 H6         -54.7749   126.3870   -46.4596 H6            1 Polymer 
    2462 H6         -56.2219   126.4667   -45.3891 H6            1 Polymer 
    2463 H6         -56.7567   127.4656   -47.5707 H6            1 Polymer 
    2464 H6         -56.2707   125.9930   -48.4483 H6            1 Polymer 
    2465 H6         -57.6947   125.9279   -47.3510 H6            1 Polymer 
    2466 C0         -64.4757   124.6644   -49.9311 C0            1 Polymer 
    2467 C1         -65.7436   124.4482   -50.7176 C1            1 Polymer 
    2468 C1         -66.6541   123.7519   -50.0418 C1            1 Polymer 
    2469 C1         -66.0664   123.1886   -48.8236 C1            1 Polymer 
    2470 C1         -64.5293   123.3229   -49.1400 C1            1 Polymer 
    2471 C1         -64.2042   122.1135   -49.9529 C1            1 Polymer 
    2472 C1         -65.1353   121.1541   -49.9632 C1            1 Polymer 
    2473 S2         -66.5239   121.4769   -48.9059 S2            1 Polymer 
    2474 C1         -64.9427   119.8182   -50.5623 C1            1 Polymer 
    2475 C1         -63.7653   119.5224   -51.2744 C1            1 Polymer 
    2476 N3         -63.4106   118.2342   -51.4813 N3            1 Polymer 
    2477 C1         -64.0880   117.2274   -50.8719 C1            1 Polymer 
    2478 C1         -65.4350   117.4246   -50.5840 C1            1 Polymer 
    2479 C1         -65.8552   118.7539   -50.3471 C1            1 Polymer 
    2480 N3         -67.0985   118.8712   -49.8078 N3            1 Polymer 
    2481 S2         -67.5940   117.3039   -49.6635 S2            1 Polymer 
    2482 N3         -66.2938   116.4433   -50.1977 N3            1 Polymer 
    2483 S2         -67.9501   123.3142   -51.0234 S2            1 Polymer 
    2484 C1         -67.3103   124.0732   -52.4037 C1            1 Polymer 
    2485 C1         -66.0738   124.6448   -52.0555 C1            1 Polymer 
    2486 C0         -64.6005   125.7921   -48.8145 C0            1 Polymer 
    2487 C0         -65.4116   127.0842   -49.1576 C0            1 Polymer 
    2488 C0         -64.6877   128.3594   -48.5904 C0            1 Polymer 
    2489 C0         -65.0800   129.6702   -49.3050 C0            1 Polymer 
    2490 C0         -64.6714   130.9522   -48.5357 C0            1 Polymer 
    2491 C0         -65.2588   132.2036   -49.2338 C0            1 Polymer 
    2492 C0         -65.3965   133.4492   -48.3275 C0            1 Polymer 
    2493 C0         -64.1374   134.2785   -48.0142 C0            1 Polymer 
    2494 C0         -63.6582   135.0738   -49.2394 C0            1 Polymer 
    2495 C0         -62.5424   136.0936   -48.9315 C0            1 Polymer 
    2496 C0         -63.0504   137.3230   -48.1586 C0            1 Polymer 
    2497 C0         -61.9528   138.3764   -48.0052 C0            1 Polymer 
    2498 C0         -66.8254   126.8762   -48.4817 C0            1 Polymer 
    2499 C0         -68.0270   127.6975   -48.9298 C0            1 Polymer 
    2500 C0         -69.2795   127.3508   -48.0763 C0            1 Polymer 
    2501 C0         -70.4981   127.9109   -48.7906 C0            1 Polymer 
    2502 C0         -71.8687   127.8165   -48.1223 C0            1 Polymer 
    2503 C0         -72.8958   128.3802   -49.1300 C0            1 Polymer 
    2504 C0         -74.3351   128.3699   -48.6210 C0            1 Polymer 
    2505 C0         -75.2713   128.9426   -49.6890 C0            1 Polymer 
    2506 C0         -63.3286   124.9061   -50.9940 C0            1 Polymer 
    2507 C0         -61.8020   125.1879   -50.7786 C0            1 Polymer 
    2508 C0         -60.9482   123.9442   -50.3631 C0            1 Polymer 
    2509 C0         -59.4438   124.1460   -50.6861 C0            1 Polymer 
    2510 C0         -58.5119   122.9247   -50.5746 C0            1 Polymer 
    2511 C0         -57.0793   123.3831   -50.9597 C0            1 Polymer 
    2512 C0         -55.9855   122.3126   -50.8064 C0            1 Polymer 
    2513 C0         -54.5914   122.9253   -51.0854 C0            1 Polymer 
    2514 C0         -53.4428   121.9634   -50.7326 C0            1 Polymer 
    2515 C0         -52.0656   122.6400   -50.8394 C0            1 Polymer 
    2516 C0         -50.9816   121.7679   -50.1838 C0            1 Polymer 
    2517 C0         -49.6019   122.4145   -50.2740 C0            1 Polymer 
    2518 C0         -61.5914   126.5373   -50.0312 C0            1 Polymer 
    2519 C0         -60.2229   127.1945   -50.1558 C0            1 Polymer 
    2520 C0         -60.3245   128.6978   -49.8935 C0            1 Polymer 
    2521 C0         -58.9335   129.3276   -49.9646 C0            1 Polymer 
    2522 C0         -58.9787   130.8407   -50.1634 C0            1 Polymer 
    2523 C0         -59.6090   131.5936   -48.9891 C0            1 Polymer 
    2524 C0         -59.6588   133.1073   -49.2373 C0            1 Polymer 
    2525 C0         -60.5575   133.4769   -50.4188 C0            1 Polymer 
    2526 H4         -63.2470   122.0345   -50.4317 H4            1 Polymer 
    2527 H5         -63.0581   120.2765   -51.5755 H5            1 Polymer 
    2528 H4         -65.4428   125.1802   -52.7492 H4            1 Polymer 
    2529 H6         -65.0266   125.3844   -47.8684 H6            1 Polymer 
    2530 H6         -63.6217   126.0042   -48.4055 H6            1 Polymer 
    2531 H6         -65.4415   127.1521   -50.2662 H6            1 Polymer 
    2532 H6         -63.5880   128.2836   -48.7253 H6            1 Polymer 
    2533 H6         -64.8749   128.4148   -47.4961 H6            1 Polymer 
    2534 H6         -66.1665   129.7124   -49.4140 H6            1 Polymer 
    2535 H6         -64.6508   129.6617   -50.3267 H6            1 Polymer 
    2536 H6         -63.5706   131.0414   -48.4089 H6            1 Polymer 
    2537 H6         -65.1372   130.8699   -47.5299 H6            1 Polymer 
    2538 H6         -66.3113   131.9536   -49.4893 H6            1 Polymer 
    2539 H6         -64.7280   132.4167   -50.1836 H6            1 Polymer 
    2540 H6         -66.1234   134.1437   -48.8059 H6            1 Polymer 
    2541 H6         -65.8587   133.1193   -47.3729 H6            1 Polymer 
    2542 H6         -64.4409   135.0124   -47.2399 H6            1 Polymer 
    2543 H6         -63.3265   133.6445   -47.5960 H6            1 Polymer 
    2544 H6         -63.3024   134.3565   -49.9981 H6            1 Polymer 
    2545 H6         -64.5109   135.6311   -49.6779 H6            1 Polymer 
    2546 H6         -62.1581   136.4721   -49.8956 H6            1 Polymer 
    2547 H6         -61.6993   135.6029   -48.4008 H6            1 Polymer 
    2548 H6         -63.4124   137.0330   -47.1521 H6            1 Polymer 
    2549 H6         -63.8909   137.7867   -48.7220 H6            1 Polymer 
    2550 H6         -61.5859   138.7096   -48.9996 H6            1 Polymer 
    2551 H6         -61.0994   137.9674   -47.4260 H6            1 Polymer 
    2552 H6         -62.3588   139.2627   -47.4729 H6            1 Polymer 
    2553 H6         -66.7057   126.9736   -47.3793 H6            1 Polymer 
    2554 H6         -67.1547   125.8377   -48.6676 H6            1 Polymer 
    2555 H6         -68.1944   127.4502   -50.0018 H6            1 Polymer 
    2556 H6         -67.8817   128.7830   -48.8262 H6            1 Polymer 
    2557 H6         -69.4163   126.2506   -47.9820 H6            1 Polymer 
    2558 H6         -69.1650   127.7888   -47.0609 H6            1 Polymer 
    2559 H6         -70.5702   127.2922   -49.7027 H6            1 Polymer 
    2560 H6         -70.3087   128.9850   -49.0159 H6            1 Polymer 
    2561 H6         -72.1085   126.7572   -47.8864 H6            1 Polymer 
    2562 H6         -71.8766   128.4159   -47.1868 H6            1 Polymer 
    2563 H6         -72.6199   129.4299   -49.3808 H6            1 Polymer 
    2564 H6         -72.8535   127.7755   -50.0646 H6            1 Polymer 
    2565 H6         -74.6432   127.3281   -48.3885 H6            1 Polymer 
    2566 H6         -74.4115   128.9878   -47.7012 H6            1 Polymer 
    2567 H6         -74.9875   129.9897   -49.9338 H6            1 Polymer 
    2568 H6         -75.2190   128.3342   -50.6184 H6            1 Polymer 
    2569 H6         -76.3177   128.9363   -49.3206 H6            1 Polymer 
    2570 H6         -63.6695   125.8042   -51.5541 H6            1 Polymer 
    2571 H6         -63.3727   124.0630   -51.7201 H6            1 Polymer 
    2572 H6         -61.4787   125.3929   -51.8258 H6            1 Polymer 
    2573 H6         -61.1217   123.6737   -49.3057 H6            1 Polymer 
    2574 H6         -61.2740   123.0946   -50.9996 H6            1 Polymer 
    2575 H6         -59.0269   124.8869   -49.9987 H6            1 Polymer 
    2576 H6         -59.3631   124.5151   -51.7322 H6            1 Polymer 
    2577 H6         -58.5300   122.5487   -49.5304 H6            1 Polymer 
    2578 H6         -58.8460   122.1136   -51.2565 H6            1 Polymer 
    2579 H6         -56.8088   124.2347   -50.2975 H6            1 Polymer 
    2580 H6         -57.0771   123.7485   -52.0102 H6            1 Polymer 
    2581 H6         -56.0098   121.9494   -49.7650 H6            1 Polymer 
    2582 H6         -56.1745   121.4508   -51.4809 H6            1 Polymer 
    2583 H6         -54.5155   123.2409   -52.1484 H6            1 Polymer 
    2584 H6         -54.4771   123.8272   -50.4431 H6            1 Polymer 
    2585 H6         -53.4780   121.0470   -51.3588 H6            1 Polymer 
    2586 H6         -53.5631   121.6523   -49.6893 H6            1 Polymer 
    2587 H6         -51.8295   122.8349   -51.9079 H6            1 Polymer 
    2588 H6         -52.0847   123.6110   -50.2954 H6            1 Polymer 
    2589 H6         -51.2293   121.6323   -49.1064 H6            1 Polymer 
    2590 H6         -50.9468   120.7688   -50.6674 H6            1 Polymer 
    2591 H6         -49.2979   122.5244   -51.3358 H6            1 Polymer 
    2592 H6         -49.6053   123.4133   -49.7868 H6            1 Polymer 
    2593 H6         -48.8579   121.7733   -49.7543 H6            1 Polymer 
    2594 H6         -61.7837   126.4853   -48.9561 H6            1 Polymer 
    2595 H6         -62.3145   127.2390   -50.5025 H6            1 Polymer 
    2596 H6         -59.8388   127.0607   -51.1908 H6            1 Polymer 
    2597 H6         -59.5240   126.7671   -49.4155 H6            1 Polymer 
    2598 H6         -60.7980   128.9160   -48.9189 H6            1 Polymer 
    2599 H6         -60.9751   129.1289   -50.6814 H6            1 Polymer 
    2600 H6         -58.3198   129.0309   -49.0964 H6            1 Polymer 
    2601 H6         -58.4277   128.9207   -50.8415 H6            1 Polymer 
    2602 H6         -57.9413   131.2085   -50.3164 H6            1 Polymer 
    2603 H6         -59.5514   131.0266   -51.0923 H6            1 Polymer 
    2604 H6         -58.9984   131.4038   -48.0844 H6            1 Polymer 
    2605 H6         -60.6419   131.2322   -48.7975 H6            1 Polymer 
    2606 H6         -58.6349   133.5039   -49.4103 H6            1 Polymer 
    2607 H6         -60.0697   133.5878   -48.3238 H6            1 Polymer 
    2608 H6         -60.6278   134.5796   -50.5031 H6            1 Polymer 
    2609 H6         -60.1563   133.1017   -51.3801 H6            1 Polymer 
    2610 H6         -61.5663   133.0456   -50.2640 H6            1 Polymer 
    2611 C0         -68.3386   131.7889   -52.8594 C0            1 Polymer 
    2612 C1         -69.6034   131.5754   -53.6520 C1            1 Polymer 
    2613 C1         -70.5220   130.8889   -52.9774 C1            1 Polymer 
    2614 C1         -69.9423   130.3297   -51.7537 C1            1 Polymer 
    2615 C1         -68.4040   130.4494   -52.0671 C1            1 Polymer 
    2616 C1         -68.0871   129.2315   -52.8719 C1            1 Polymer 
    2617 C1         -69.0252   128.2769   -52.8708 C1            1 Polymer 
    2618 S2         -70.4122   128.6219   -51.8185 S2            1 Polymer 
    2619 C1         -68.8400   126.9299   -53.4461 C1            1 Polymer 
    2620 C1         -67.6679   126.6200   -54.1576 C1            1 Polymer 
    2621 N3         -67.3132   125.3286   -54.3374 N3            1 Polymer 
    2622 C1         -67.9896   124.3319   -53.7105 C1            1 Polymer 
    2623 C1         -69.3319   124.5360   -53.4091 C1            1 Polymer 
    2624 C1         -69.7508   125.8696   -53.2000 C1            1 Polymer 
    2625 N3         -70.9887   125.9985   -52.6512 N3            1 Polymer 
    2626 S2         -71.4823   124.4347   -52.4663 S2            1 Polymer 
    2627 N3         -70.1864   123.5631   -52.9923 N3            1 Polymer 
    2628 S2         -71.8102   130.4452   -53.9658 S2            1 Polymer 
    2629 C1         -71.1579   131.1914   -55.3475 C1            1 Polymer 
    2630 C1         -69.9224   131.7627   -54.9940 C1            1 Polymer 
    2631 C0         -68.4609   132.9185   -51.7444 C0            1 Polymer 
    2632 C0         -69.2697   134.2103   -52.0899 C0            1 Polymer 
    2633 C0         -68.5463   135.4845   -51.5217 C0            1 Polymer 
    2634 C0         -68.9340   136.7928   -52.2421 C0            1 Polymer 
    2635 C0         -68.5361   138.0756   -51.4697 C0            1 Polymer 
    2636 C0         -69.1235   139.3245   -52.1717 C0            1 Polymer 
    2637 C0         -69.2696   140.5691   -51.2658 C0            1 Polymer 
    2638 C0         -68.0135   141.4002   -50.9465 C0            1 Polymer 
    2639 C0         -67.5309   142.1967   -52.1696 C0            1 Polymer 
    2640 C0         -66.4167   143.2165   -51.8575 C0            1 Polymer 
    2641 C0         -66.9282   144.4439   -51.0837 C0            1 Polymer 
    2642 C0         -65.8325   145.4981   -50.9246 C0            1 Polymer 
    2643 C0         -70.6853   134.0052   -51.4168 C0            1 Polymer 
    2644 C0         -71.8839   134.8307   -51.8656 C0            1 Polymer 
    2645 C0         -73.1382   134.4868   -51.0141 C0            1 Polymer 
    2646 C0         -74.3552   135.0457   -51.7320 C0            1 Polymer 
    2647 C0         -75.7261   134.9510   -51.0642 C0            1 Polymer 
    2648 C0         -76.7541   135.5093   -52.0735 C0            1 Polymer 
    2649 C0         -78.1937   135.4944   -51.5653 C0            1 Polymer 
    2650 C0         -79.1314   136.0615   -52.6350 C0            1 Polymer 
    2651 C0         -67.1857   132.0254   -53.9162 C0            1 Polymer 
    2652 C0         -65.6602   132.3088   -53.6972 C0            1 Polymer 
    2653 C0         -64.8064   131.0664   -53.2789 C0            1 Polymer 
    2654 C0         -63.3039   131.2664   -53.6113 C0            1 Polymer 
    2655 C0         -62.3719   130.0461   -53.4973 C0            1 Polymer 
    2656 C0         -60.9416   130.5013   -53.8941 C0            1 Polymer 
    2657 C0         -59.8479   129.4320   -53.7353 C0            1 Polymer 
    2658 C0         -58.4542   130.0394   -54.0281 C0            1 Polymer 
    2659 C0         -57.3071   129.0808   -53.6626 C0            1 Polymer 
    2660 C0         -55.9269   129.7477   -53.7856 C0            1 Polymer 
    2661 C0         -54.8478   128.8812   -53.1140 C0            1 Polymer 
    2662 C0         -53.4636   129.5152   -53.2185 C0            1 Polymer 
    2663 C0         -65.4495   133.6604   -52.9525 C0            1 Polymer 
    2664 C0         -64.0816   134.3187   -53.0811 C0            1 Polymer 
    2665 C0         -64.1815   135.8226   -52.8188 C0            1 Polymer 
    2666 C0         -62.7908   136.4527   -52.9027 C0            1 Polymer 
    2667 C0         -62.8372   137.9656   -53.1015 C0            1 Polymer 
    2668 C0         -63.4444   138.7201   -51.9164 C0            1 Polymer 
    2669 C0         -63.4960   140.2337   -52.1655 C0            1 Polymer 
    2670 C0         -64.4216   140.6032   -53.3258 C0            1 Polymer 
    2671 H4         -67.1275   129.1420   -53.3466 H4            1 Polymer 
    2672 H5         -66.9626   127.3690   -54.4761 H5            1 Polymer 
    2673 H4         -69.2829   132.2878   -55.6877 H4            1 Polymer 
    2674 H6         -68.8870   132.5143   -50.7971 H6            1 Polymer 
    2675 H6         -67.4813   133.1281   -51.3356 H6            1 Polymer 
    2676 H6         -69.2965   134.2769   -53.1986 H6            1 Polymer 
    2677 H6         -67.4460   135.4072   -51.6501 H6            1 Polymer 
    2678 H6         -68.7397   135.5420   -50.4287 H6            1 Polymer 
    2679 H6         -70.0193   136.8321   -52.3630 H6            1 Polymer 
    2680 H6         -68.4947   136.7840   -53.2596 H6            1 Polymer 
    2681 H6         -67.4366   138.1685   -51.3345 H6            1 Polymer 
    2682 H6         -69.0093   137.9915   -50.4675 H6            1 Polymer 
    2683 H6         -70.1737   139.0711   -52.4328 H6            1 Polymer 
    2684 H6         -68.5880   139.5390   -53.1185 H6            1 Polymer 
    2685 H6         -69.9957   141.2621   -51.7476 H6            1 Polymer 
    2686 H6         -69.7357   140.2377   -50.3136 H6            1 Polymer 
    2687 H6         -68.3213   142.1330   -50.1729 H6            1 Polymer 
    2688 H6         -67.2033   140.7671   -50.5256 H6            1 Polymer 
    2689 H6         -67.1727   141.4807   -52.9284 H6            1 Polymer 
    2690 H6         -68.3828   142.7540   -52.6097 H6            1 Polymer 
    2691 H6         -66.0301   143.5964   -52.8203 H6            1 Polymer 
    2692 H6         -65.5747   142.7253   -51.3251 H6            1 Polymer 
    2693 H6         -67.2927   144.1514   -50.0787 H6            1 Polymer 
    2694 H6         -67.7676   144.9077   -51.6485 H6            1 Polymer 
    2695 H6         -65.4633   145.8343   -51.9172 H6            1 Polymer 
    2696 H6         -64.9802   145.0887   -50.3440 H6            1 Polymer 
    2697 H6         -66.2412   146.3824   -50.3911 H6            1 Polymer 
    2698 H6         -70.5676   134.1010   -50.3140 H6            1 Polymer 
    2699 H6         -71.0174   132.9680   -51.6037 H6            1 Polymer 
    2700 H6         -72.0505   134.5849   -52.9382 H6            1 Polymer 
    2701 H6         -71.7361   135.9157   -51.7601 H6            1 Polymer 
    2702 H6         -73.2762   133.3870   -50.9179 H6            1 Polymer 
    2703 H6         -73.0252   134.9264   -49.9991 H6            1 Polymer 
    2704 H6         -74.4255   134.4237   -52.6414 H6            1 Polymer 
    2705 H6         -74.1661   136.1189   -51.9621 H6            1 Polymer 
    2706 H6         -75.9637   133.8919   -50.8253 H6            1 Polymer 
    2707 H6         -75.7356   135.5529   -50.1303 H6            1 Polymer 
    2708 H6         -76.4814   136.5593   -52.3263 H6            1 Polymer 
    2709 H6         -76.7094   134.9027   -53.0067 H6            1 Polymer 
    2710 H6         -78.4978   134.4519   -51.3313 H6            1 Polymer 
    2711 H6         -78.2732   136.1136   -50.6465 H6            1 Polymer 
    2712 H6         -78.8517   137.1094   -52.8810 H6            1 Polymer 
    2713 H6         -79.0757   135.4518   -53.5633 H6            1 Polymer 
    2714 H6         -80.1780   136.0513   -52.2674 H6            1 Polymer 
    2715 H6         -67.5233   132.9227   -54.4800 H6            1 Polymer 
    2716 H6         -67.2272   131.1791   -54.6386 H6            1 Polymer 
    2717 H6         -65.3367   132.5114   -54.7448 H6            1 Polymer 
    2718 H6         -64.9750   130.8014   -52.2192 H6            1 Polymer 
    2719 H6         -65.1364   130.2131   -53.9087 H6            1 Polymer 
    2720 H6         -62.8831   132.0119   -52.9313 H6            1 Polymer 
    2721 H6         -63.2286   131.6289   -54.6601 H6            1 Polymer 
    2722 H6         -62.3844   129.6776   -52.4505 H6            1 Polymer 
    2723 H6         -62.7101   129.2302   -54.1716 H6            1 Polymer 
    2724 H6         -60.6673   131.3588   -53.2411 H6            1 Polymer 
    2725 H6         -60.9446   130.8569   -54.9480 H6            1 Polymer 
    2726 H6         -59.8682   129.0808   -52.6897 H6            1 Polymer 
    2727 H6         -60.0410   128.5625   -54.3986 H6            1 Polymer 
    2728 H6         -58.3815   130.3380   -55.0962 H6            1 Polymer 
    2729 H6         -58.3362   130.9509   -53.4002 H6            1 Polymer 
    2730 H6         -57.3484   128.1524   -54.2704 H6            1 Polymer 
    2731 H6         -57.4245   128.7920   -52.6133 H6            1 Polymer 
    2732 H6         -55.6918   129.9196   -54.8581 H6            1 Polymer 
    2733 H6         -55.9393   130.7293   -53.2608 H6            1 Polymer 
    2734 H6         -55.0950   128.7688   -52.0337 H6            1 Polymer 
    2735 H6         -54.8211   127.8723   -53.5774 H6            1 Polymer 
    2736 H6         -53.1602   129.6015   -54.2826 H6            1 Polymer 
    2737 H6         -53.4588   130.5233   -52.7511 H6            1 Polymer 
    2738 H6         -52.7241   128.8785   -52.6869 H6            1 Polymer 
    2739 H6         -65.6404   133.6108   -51.8768 H6            1 Polymer 
    2740 H6         -66.1737   134.3606   -53.4243 H6            1 Polymer 
    2741 H6         -63.7019   134.1843   -54.1177 H6            1 Polymer 
    2742 H6         -63.3795   133.8914   -52.3439 H6            1 Polymer 
    2743 H6         -64.6466   136.0418   -51.8403 H6            1 Polymer 
    2744 H6         -64.8382   136.2533   -53.6022 H6            1 Polymer 
    2745 H6         -62.1669   136.1560   -52.0412 H6            1 Polymer 
    2746 H6         -62.2953   136.0469   -53.7857 H6            1 Polymer 
    2747 H6         -61.8018   138.3316   -53.2721 H6            1 Polymer 
    2748 H6         -63.4248   138.1523   -54.0210 H6            1 Polymer 
    2749 H6         -62.8161   138.5304   -51.0241 H6            1 Polymer 
    2750 H6         -64.4737   138.3600   -51.7040 H6            1 Polymer 
    2751 H6         -62.4754   140.6275   -52.3630 H6            1 Polymer 
    2752 H6         -63.8845   140.7172   -51.2438 H6            1 Polymer 
    2753 H6         -64.4899   141.7059   -53.4115 H6            1 Polymer 
    2754 H6         -64.0463   140.2236   -54.2958 H6            1 Polymer 
    2755 H6         -65.4274   140.1759   -53.1435 H6            1 Polymer 
    2756 C0         -72.2146   138.8915   -55.7993 C0            1 Polymer 
    2757 C1         -73.4779   138.6799   -56.5960 C1            1 Polymer 
    2758 C1         -74.3963   137.9876   -55.9263 C1            1 Polymer 
    2759 C1         -73.8208   137.4247   -54.7022 C1            1 Polymer 
    2760 C1         -72.2812   137.5500   -55.0086 C1            1 Polymer 
    2761 C1         -71.9567   136.3345   -55.8127 C1            1 Polymer 
    2762 C1         -72.8914   135.3768   -55.8196 C1            1 Polymer 
    2763 S2         -74.2888   135.7152   -54.7779 S2            1 Polymer 
    2764 C1         -72.6941   134.0318   -56.3979 C1            1 Polymer 
    2765 C1         -71.5142   133.7292   -57.1018 C1            1 Polymer 
    2766 N3         -71.1516   132.4401   -57.2836 N3            1 Polymer 
    2767 C1         -71.8265   131.4389   -56.6623 C1            1 Polymer 
    2768 C1         -73.1731   131.6351   -56.3726 C1            1 Polymer 
    2769 C1         -73.6012   132.9666   -56.1632 C1            1 Polymer 
    2770 N3         -74.8446   133.0874   -55.6250 N3            1 Polymer 
    2771 S2         -75.3306   131.5205   -55.4478 S2            1 Polymer 
    2772 N3         -74.0257   130.6571   -55.9651 N3            1 Polymer 
    2773 S2         -75.6853   137.5521   -56.9177 S2            1 Polymer 
    2774 C1         -75.0343   138.3072   -58.2951 C1            1 Polymer 
    2775 C1         -73.7984   138.8766   -57.9374 C1            1 Polymer 
    2776 C0         -72.3395   140.0176   -54.6810 C0            1 Polymer 
    2777 C0         -73.1475   141.3115   -55.0228 C0            1 Polymer 
    2778 C0         -72.4226   142.5851   -54.4539 C0            1 Polymer 
    2779 C0         -72.8086   143.8957   -55.1729 C0            1 Polymer 
    2780 C0         -72.4052   145.1772   -54.4003 C0            1 Polymer 
    2781 C0         -72.9888   146.4292   -55.1004 C0            1 Polymer 
    2782 C0         -73.1316   147.6733   -54.1928 C0            1 Polymer 
    2783 C0         -71.8742   148.5022   -53.8723 C0            1 Polymer 
    2784 C0         -71.3917   149.3025   -55.0931 C0            1 Polymer 
    2785 C0         -70.2765   150.3207   -54.7780 C0            1 Polymer 
    2786 C0         -70.7869   151.5467   -54.0012 C0            1 Polymer 
    2787 C0         -69.6909   152.6008   -53.8424 C0            1 Polymer 
    2788 C0         -74.5616   141.1049   -54.3474 C0            1 Polymer 
    2789 C0         -75.7592   141.9365   -54.7866 C0            1 Polymer 
    2790 C0         -77.0126   141.5896   -53.9342 C0            1 Polymer 
    2791 C0         -78.2299   142.1535   -54.6476 C0            1 Polymer 
    2792 C0         -79.6021   142.0588   -53.9829 C0            1 Polymer 
    2793 C0         -80.6262   142.6240   -54.9929 C0            1 Polymer 
    2794 C0         -82.0676   142.6082   -54.4903 C0            1 Polymer 
    2795 C0         -83.0005   143.1827   -55.5603 C0            1 Polymer 
    2796 C0         -71.0594   139.1332   -56.8529 C0            1 Polymer 
    2797 C0         -69.5340   139.4194   -56.6308 C0            1 Polymer 
    2798 C0         -68.6781   138.1780   -56.2126 C0            1 Polymer 
    2799 C0         -67.1745   138.3800   -56.5419 C0            1 Polymer 
    2800 C0         -66.2410   137.1602   -56.4286 C0            1 Polymer 
    2801 C0         -64.8099   137.6165   -56.8225 C0            1 Polymer 
    2802 C0         -63.7170   136.5454   -56.6673 C0            1 Polymer 
    2803 C0         -62.3219   137.1520   -56.9561 C0            1 Polymer 
    2804 C0         -61.1758   136.1876   -56.6008 C0            1 Polymer 
    2805 C0         -59.7946   136.8542   -56.7176 C0            1 Polymer 
    2806 C0         -58.7160   135.9806   -56.0544 C0            1 Polymer 
    2807 C0         -57.3308   136.6137   -56.1542 C0            1 Polymer 
    2808 C0         -69.3262   140.7715   -55.8851 C0            1 Polymer 
    2809 C0         -67.9570   141.4282   -56.0086 C0            1 Polymer 
    2810 C0         -68.0536   142.9328   -55.7484 C0            1 Polymer 
    2811 C0         -66.6604   143.5580   -55.8312 C0            1 Polymer 
    2812 C0         -66.7007   145.0708   -56.0323 C0            1 Polymer 
    2813 C0         -67.2969   145.8297   -54.8446 C0            1 Polymer 
    2814 C0         -67.3447   147.3430   -55.0963 C0            1 Polymer 
    2815 C0         -68.2808   147.7134   -56.2475 C0            1 Polymer 
    2816 H4         -70.9946   136.2481   -56.2817 H4            1 Polymer 
    2817 H5         -70.8096   134.4815   -57.4137 H5            1 Polymer 
    2818 H4         -73.1603   139.4079   -58.6279 H4            1 Polymer 
    2819 H6         -72.7668   139.6094   -53.7355 H6            1 Polymer 
    2820 H6         -71.3604   140.2261   -54.2704 H6            1 Polymer 
    2821 H6         -73.1766   141.3810   -56.1314 H6            1 Polymer 
    2822 H6         -71.3225   142.5070   -54.5830 H6            1 Polymer 
    2823 H6         -72.6150   142.6422   -53.3606 H6            1 Polymer 
    2824 H6         -73.8943   143.9378   -55.2917 H6            1 Polymer 
    2825 H6         -72.3713   143.8871   -56.1914 H6            1 Polymer 
    2826 H6         -71.3052   145.2664   -54.2662 H6            1 Polymer 
    2827 H6         -72.8774   145.0940   -53.3975 H6            1 Polymer 
    2828 H6         -74.0398   146.1789   -55.3613 H6            1 Polymer 
    2829 H6         -72.4533   146.6438   -56.0473 H6            1 Polymer 
    2830 H6         -73.8567   148.3683   -54.6731 H6            1 Polymer 
    2831 H6         -73.5979   147.3414   -53.2408 H6            1 Polymer 
    2832 H6         -72.1806   149.2333   -53.0964 H6            1 Polymer 
    2833 H6         -71.0643   147.8672   -53.4537 H6            1 Polymer 
    2834 H6         -71.0350   148.5888   -55.8549 H6            1 Polymer 
    2835 H6         -72.2433   149.8621   -55.5309 H6            1 Polymer 
    2836 H6         -69.8896   150.7032   -55.7394 H6            1 Polymer 
    2837 H6         -69.4346   149.8276   -54.2472 H6            1 Polymer 
    2838 H6         -71.1502   151.2524   -52.9963 H6            1 Polymer 
    2839 H6         -71.6270   152.0116   -54.5641 H6            1 Polymer 
    2840 H6         -69.3235   152.9383   -54.8353 H6            1 Polymer 
    2841 H6         -68.8376   152.1908   -53.2638 H6            1 Polymer 
    2842 H6         -70.0988   153.4845   -53.3072 H6            1 Polymer 
    2843 H6         -74.4405   141.1941   -53.2444 H6            1 Polymer 
    2844 H6         -74.8956   140.0693   -54.5412 H6            1 Polymer 
    2845 H6         -75.9283   141.6985   -55.8604 H6            1 Polymer 
    2846 H6         -75.6075   143.0205   -54.6738 H6            1 Polymer 
    2847 H6         -77.1519   140.4895   -53.8437 H6            1 Polymer 
    2848 H6         -76.8973   142.0237   -52.9172 H6            1 Polymer 
    2849 H6         -78.3023   141.5342   -55.5584 H6            1 Polymer 
    2850 H6         -78.0390   143.2275   -54.8730 H6            1 Polymer 
    2851 H6         -79.8423   140.9989   -53.7498 H6            1 Polymer 
    2852 H6         -79.6126   142.6563   -53.0463 H6            1 Polymer 
    2853 H6         -80.3511   143.6750   -55.2391 H6            1 Polymer 
    2854 H6         -80.5792   142.0228   -55.9295 H6            1 Polymer 
    2855 H6         -82.3739   141.5646   -54.2636 H6            1 Polymer 
    2856 H6         -82.1498   143.2220   -53.5683 H6            1 Polymer 
    2857 H6         -82.7188   144.2316   -55.7991 H6            1 Polymer 
    2858 H6         -82.9420   142.5784   -56.4921 H6            1 Polymer 
    2859 H6         -84.0486   143.1714   -55.1969 H6            1 Polymer 
    2860 H6         -71.3978   140.0311   -57.4149 H6            1 Polymer 
    2861 H6         -71.0985   138.2893   -57.5783 H6            1 Polymer 
    2862 H6         -69.2086   139.6237   -57.6776 H6            1 Polymer 
    2863 H6         -68.8487   137.9113   -55.1537 H6            1 Polymer 
    2864 H6         -69.0058   137.3254   -56.8444 H6            1 Polymer 
    2865 H6         -66.7550   139.1246   -55.8602 H6            1 Polymer 
    2866 H6         -67.0977   138.7442   -57.5900 H6            1 Polymer 
    2867 H6         -66.2542   136.7895   -55.3824 H6            1 Polymer 
    2868 H6         -66.5778   136.3455   -57.1049 H6            1 Polymer 
    2869 H6         -64.5358   138.4717   -56.1665 H6            1 Polymer 
    2870 H6         -64.8118   137.9758   -57.8751 H6            1 Polymer 
    2871 H6         -63.7389   136.1890   -55.6234 H6            1 Polymer 
    2872 H6         -63.9107   135.6796   -57.3353 H6            1 Polymer 
    2873 H6         -62.2490   137.4595   -58.0217 H6            1 Polymer 
    2874 H6         -62.2018   138.0579   -56.3207 H6            1 Polymer 
    2875 H6         -61.2184   135.2659   -57.2186 H6            1 Polymer 
    2876 H6         -61.2929   135.8861   -55.5549 H6            1 Polymer 
    2877 H6         -59.5594   137.0361   -57.7885 H6            1 Polymer 
    2878 H6         -59.8057   137.8308   -56.1835 H6            1 Polymer 
    2879 H6         -58.9626   135.8592   -54.9750 H6            1 Polymer 
    2880 H6         -58.6906   134.9757   -56.5265 H6            1 Polymer 
    2881 H6         -57.0276   136.7083   -57.2176 H6            1 Polymer 
    2882 H6         -57.3244   137.6179   -55.6784 H6            1 Polymer 
    2883 H6         -56.5919   135.9716   -55.6282 H6            1 Polymer 
    2884 H6         -69.5218   140.7229   -54.8102 H6            1 Polymer 
    2885 H6         -70.0479   141.4721   -56.3601 H6            1 Polymer 
    2886 H6         -67.5737   141.2922   -57.0436 H6            1 Polymer 
    2887 H6         -67.2586   141.0002   -55.2681 H6            1 Polymer 
    2888 H6         -68.5205   143.1551   -54.7716 H6            1 Polymer 
    2889 H6         -68.7074   143.3639   -56.5341 H6            1 Polymer 
    2890 H6         -66.0379   143.2601   -54.9687 H6            1 Polymer 
    2891 H6         -66.1663   143.1486   -56.7135 H6            1 Polymer 
    2892 H6         -65.6645   145.4318   -56.2085 H6            1 Polymer 
    2893 H6         -67.2918   145.2592   -56.9491 H6            1 Polymer 
    2894 H6         -66.6621   145.6399   -53.9570 H6            1 Polymer 
    2895 H6         -68.3256   145.4734   -54.6234 H6            1 Polymer 
    2896 H6         -66.3246   147.7324   -55.3050 H6            1 Polymer 
    2897 H6         -67.7220   147.8301   -54.1718 H6            1 Polymer 
    2898 H6         -68.3460   148.8162   -56.3352 H6            1 Polymer 
    2899 H6         -67.9179   147.3298   -57.2206 H6            1 Polymer 
    2900 H6         -69.2860   147.2903   -56.0527 H6            1 Polymer 
    2901 C0         -76.0736   146.0122   -58.7185 C0            1 Polymer 
    2902 C1         -77.3429   145.7980   -59.5038 C1            1 Polymer 
    2903 C1         -78.2533   145.1043   -58.8247 C1            1 Polymer 
    2904 C1         -77.6642   144.5405   -57.6077 C1            1 Polymer 
    2905 C1         -76.1283   144.6688   -57.9300 C1            1 Polymer 
    2906 C1         -75.8118   143.4560   -58.7433 C1            1 Polymer 
    2907 C1         -76.7467   142.4986   -58.7453 C1            1 Polymer 
    2908 S2         -78.1297   142.8310   -57.6844 S2            1 Polymer 
    2909 C1         -76.5595   141.1562   -59.3329 C1            1 Polymer 
    2910 C1         -75.3834   140.8516   -60.0416 C1            1 Polymer 
    2911 N3         -75.0268   139.5616   -60.2292 N3            1 Polymer 
    2912 C1         -75.7042   138.5612   -59.6094 C1            1 Polymer 
    2913 C1         -77.0500   138.7617   -59.3177 C1            1 Polymer 
    2914 C1         -77.4715   140.0943   -59.1015 C1            1 Polymer 
    2915 N3         -78.7136   140.2183   -58.5608 N3            1 Polymer 
    2916 S2         -79.2067   138.6528   -58.3900 S2            1 Polymer 
    2917 N3         -77.9067   137.7858   -58.9135 N3            1 Polymer 
    2918 S2         -79.5515   144.6664   -59.8021 S2            1 Polymer 
    2919 C1         -78.9155   145.4221   -61.1857 C1            1 Polymer 
    2920 C1         -77.6765   145.9937   -60.8415 C1            1 Polymer 
    2921 C0         -76.1956   147.1383   -57.5995 C0            1 Polymer 
    2922 C0         -77.0006   148.4343   -57.9420 C0            1 Polymer 
    2923 C0         -76.2752   149.7076   -57.3727 C0            1 Polymer 
    2924 C0         -76.6580   151.0171   -58.0955 C0            1 Polymer 
    2925 C0         -76.2628   152.3008   -57.3221 C0            1 Polymer 
    2926 C0         -76.8453   153.5505   -58.0275 C0            1 Polymer 
    2927 C0         -76.9969   154.7956   -57.1225 C0            1 Polymer 
    2928 C0         -75.7438   155.6288   -56.7963 C0            1 Polymer 
    2929 C0         -75.2569   156.4281   -58.0160 C0            1 Polymer 
    2930 C0         -74.1459   157.4497   -57.6975 C0            1 Polymer 
    2931 C0         -74.6639   158.6767   -56.9277 C0            1 Polymer 
    2932 C0         -73.5724   159.7354   -56.7691 C0            1 Polymer 
    2933 C0         -78.4155   148.2310   -57.2677 C0            1 Polymer 
    2934 C0         -79.6111   149.0647   -57.7081 C0            1 Polymer 
    2935 C0         -80.8646   148.7197   -56.8556 C0            1 Polymer 
    2936 C0         -82.0814   149.2818   -57.5704 C0            1 Polymer 
    2937 C0         -83.4526   149.1875   -56.9028 C0            1 Polymer 
    2938 C0         -84.4802   149.7489   -57.9112 C0            1 Polymer 
    2939 C0         -85.9196   149.7370   -57.4027 C0            1 Polymer 
    2940 C0         -86.8562   150.3078   -58.4716 C0            1 Polymer 
    2941 C0         -74.9268   146.2567   -59.7802 C0            1 Polymer 
    2942 C0         -73.4007   146.5405   -59.5617 C0            1 Polymer 
    2943 C0         -72.5471   145.2970   -59.1456 C0            1 Polymer 
    2944 C0         -71.0433   145.4990   -59.4706 C0            1 Polymer 
    2945 C0         -70.1109   144.2783   -59.3608 C0            1 Polymer 
    2946 C0         -68.6797   144.7371   -59.7501 C0            1 Polymer 
    2947 C0         -67.5858   143.6670   -59.5980 C0            1 Polymer 
    2948 C0         -66.1919   144.2789   -59.8806 C0            1 Polymer 
    2949 C0         -65.0437   143.3167   -59.5278 C0            1 Polymer 
    2950 C0         -63.6652   143.9904   -59.6346 C0            1 Polymer 
    2951 C0         -62.5851   143.1178   -58.9730 C0            1 Polymer 
    2952 C0         -61.2032   143.7597   -59.0614 C0            1 Polymer 
    2953 C0         -73.1904   147.8903   -58.8133 C0            1 Polymer 
    2954 C0         -71.8217   148.5478   -58.9371 C0            1 Polymer 
    2955 C0         -71.9203   150.0508   -58.6699 C0            1 Polymer 
    2956 C0         -70.5283   150.6788   -58.7472 C0            1 Polymer 
    2957 C0         -70.5721   152.1922   -58.9420 C0            1 Polymer 
    2958 C0         -71.1827   152.9442   -57.7571 C0            1 Polymer 
    2959 C0         -71.2360   154.4580   -58.0040 C0            1 Polymer 
    2960 C0         -72.1593   154.8270   -59.1663 C0            1 Polymer 
    2961 H4         -74.8559   143.3721   -59.2245 H4            1 Polymer 
    2962 H5         -74.6760   141.6020   -60.3513 H5            1 Polymer 
    2963 H4         -77.0457   146.5264   -61.5378 H4            1 Polymer 
    2964 H6         -76.6249   146.7305   -56.6550 H6            1 Polymer 
    2965 H6         -75.2169   147.3453   -57.1878 H6            1 Polymer 
    2966 H6         -77.0289   148.5036   -59.0506 H6            1 Polymer 
    2967 H6         -75.1748   149.6281   -57.4978 H6            1 Polymer 
    2968 H6         -76.4710   149.7667   -56.2801 H6            1 Polymer 
    2969 H6         -77.7430   151.0571   -58.2225 H6            1 Polymer 
    2970 H6         -76.2134   151.0075   -59.1107 H6            1 Polymer 
    2971 H6         -75.1639   152.3929   -57.1810 H6            1 Polymer 
    2972 H6         -76.7412   152.2177   -56.3222 H6            1 Polymer 
    2973 H6         -77.8940   153.2973   -58.2948 H6            1 Polymer 
    2974 H6         -76.3045   153.7652   -58.9714 H6            1 Polymer 
    2975 H6         -77.7214   155.4876   -57.6079 H6            1 Polymer 
    2976 H6         -77.4678   154.4637   -56.1727 H6            1 Polymer 
    2977 H6         -76.0564   156.3606   -56.0235 H6            1 Polymer 
    2978 H6         -74.9345   154.9968   -56.3722 H6            1 Polymer 
    2979 H6         -74.8947   155.7140   -58.7744 H6            1 Polymer 
    2980 H6         -76.1075   156.9846   -58.4590 H6            1 Polymer 
    2981 H6         -73.7543   157.8304   -58.6578 H6            1 Polymer 
    2982 H6         -73.3056   156.9604   -57.1607 H6            1 Polymer 
    2983 H6         -75.0307   158.3849   -55.9233 H6            1 Polymer 
    2984 H6         -75.5033   159.1366   -57.4959 H6            1 Polymer 
    2985 H6         -73.2025   160.0698   -57.7622 H6            1 Polymer 
    2986 H6         -72.7198   159.3308   -56.1855 H6            1 Polymer 
    2987 H6         -73.9854   160.6199   -56.2393 H6            1 Polymer 
    2988 H6         -78.2950   148.3205   -56.1646 H6            1 Polymer 
    2989 H6         -78.7516   147.1961   -57.4610 H6            1 Polymer 
    2990 H6         -79.7808   148.8265   -58.7820 H6            1 Polymer 
    2991 H6         -79.4581   150.1486   -57.5956 H6            1 Polymer 
    2992 H6         -81.0043   147.6197   -56.7631 H6            1 Polymer 
    2993 H6         -80.7496   149.1555   -55.8393 H6            1 Polymer 
    2994 H6         -82.1522   148.6610   -58.4804 H6            1 Polymer 
    2995 H6         -81.8910   150.3553   -57.7981 H6            1 Polymer 
    2996 H6         -83.6917   148.1283   -56.6658 H6            1 Polymer 
    2997 H6         -83.4612   149.7880   -55.9680 H6            1 Polymer 
    2998 H6         -84.2054   150.7985   -58.1632 H6            1 Polymer 
    2999 H6         -84.4374   149.1428   -58.8448 H6            1 Polymer 
    3000 H6         -86.2263   148.6950   -57.1698 H6            1 Polymer 
    3001 H6         -85.9973   150.3554   -56.4833 H6            1 Polymer 
    3002 H6         -86.5739   151.3551   -58.7166 H6            1 Polymer 
    3003 H6         -86.8024   149.6990   -59.4006 H6            1 Polymer 
    3004 H6         -87.9027   150.2999   -58.1037 H6            1 Polymer 
    3005 H6         -75.2684   147.1550   -60.3398 H6            1 Polymer 
    3006 H6         -74.9695   145.4143   -60.5070 H6            1 Polymer 
    3007 H6         -73.0767   146.7465   -60.6085 H6            1 Polymer 
    3008 H6         -72.7197   145.0267   -58.0876 H6            1 Polymer 
    3009 H6         -72.8740   144.4469   -59.7810 H6            1 Polymer 
    3010 H6         -70.6253   146.2398   -58.7840 H6            1 Polymer 
    3011 H6         -70.9642   145.8681   -60.5169 H6            1 Polymer 
    3012 H6         -70.1260   143.9029   -58.3162 H6            1 Polymer 
    3013 H6         -70.4465   143.4667   -60.0414 H6            1 Polymer 
    3014 H6         -68.4077   145.5895   -59.0895 H6            1 Polymer 
    3015 H6         -68.6801   145.1015   -60.8010 H6            1 Polymer 
    3016 H6         -67.6092   143.3049   -58.5559 H6            1 Polymer 
    3017 H6         -67.7764   142.8044   -60.2711 H6            1 Polymer 
    3018 H6         -66.1175   144.5927   -60.9443 H6            1 Polymer 
    3019 H6         -66.0762   145.1818   -59.2400 H6            1 Polymer 
    3020 H6         -65.0803   142.3990   -60.1518 H6            1 Polymer 
    3021 H6         -65.1636   143.0079   -58.4843 H6            1 Polymer 
    3022 H6         -63.4267   144.1812   -60.7032 H6            1 Polymer 
    3023 H6         -63.6833   144.9632   -59.0936 H6            1 Polymer 
    3024 H6         -62.8360   142.9869   -57.8957 H6            1 Polymer 
    3025 H6         -62.5520   142.1167   -59.4526 H6            1 Polymer 
    3026 H6         -60.8957   143.8645   -60.1227 H6            1 Polymer 
    3027 H6         -61.2050   144.7602   -58.5778 H6            1 Polymer 
    3028 H6         -60.4630   143.1179   -58.5370 H6            1 Polymer 
    3029 H6         -73.3823   147.8381   -57.7381 H6            1 Polymer 
    3030 H6         -73.9133   148.5923   -59.2846 H6            1 Polymer 
    3031 H6         -71.4394   148.4163   -59.9730 H6            1 Polymer 
    3032 H6         -71.1217   148.1183   -58.1991 H6            1 Polymer 
    3033 H6         -72.3883   150.2671   -57.6922 H6            1 Polymer 
    3034 H6         -72.5743   150.4850   -59.4535 H6            1 Polymer 
    3035 H6         -69.9081   150.3787   -57.8841 H6            1 Polymer 
    3036 H6         -70.0301   150.2745   -59.6294 H6            1 Polymer 
    3037 H6         -69.5360   152.5580   -59.1084 H6            1 Polymer 
    3038 H6         -71.1565   152.3813   -59.8629 H6            1 Polymer 
    3039 H6         -70.5564   152.7540   -56.8634 H6            1 Polymer 
    3040 H6         -72.2121   152.5829   -57.5476 H6            1 Polymer 
    3041 H6         -70.2157   154.8542   -58.1983 H6            1 Polymer 
    3042 H6         -71.6281   154.9394   -57.0827 H6            1 Polymer 
    3043 H6         -72.2310   155.9296   -59.2502 H6            1 Polymer 
    3044 H6         -71.7800   154.4508   -60.1361 H6            1 Polymer 
    3045 H6         -73.1641   154.3954   -58.9879 H6            1 Polymer 
    3046 C0         -79.9621   153.1282   -61.6386 C0            1 Polymer 
    3047 C1         -81.2273   152.9192   -62.4334 C1            1 Polymer 
    3048 C1         -82.1479   152.2339   -61.7598 C1            1 Polymer 
    3049 C1         -81.5732   151.6715   -60.5355 C1            1 Polymer 
    3050 C1         -80.0335   151.7888   -60.8448 C1            1 Polymer 
    3051 C1         -79.7158   150.5699   -61.6460 C1            1 Polymer 
    3052 C1         -80.6554   149.6167   -61.6492 C1            1 Polymer 
    3053 S2         -82.0507   149.9647   -60.6084 S2            1 Polymer 
    3054 C1         -80.4646   148.2696   -62.2245 C1            1 Polymer 
    3055 C1         -79.2914   147.9644   -62.9379 C1            1 Polymer 
    3056 N3         -78.9310   146.6749   -63.1202 N3            1 Polymer 
    3057 C1         -79.6005   145.6756   -62.4909 C1            1 Polymer 
    3058 C1         -80.9442   145.8735   -62.1866 C1            1 Polymer 
    3059 C1         -81.3700   147.2058   -61.9777 C1            1 Polymer 
    3060 N3         -82.6086   147.3292   -61.4281 N3            1 Polymer 
    3061 S2         -83.0935   145.7628   -61.2417 S2            1 Polymer 
    3062 N3         -81.7935   144.8974   -61.7679 N3            1 Polymer 
    3063 S2         -83.4400   151.7996   -62.7471 S2            1 Polymer 
    3064 C1         -82.7876   152.5454   -64.1286 C1            1 Polymer 
    3065 C1         -81.5486   153.1110   -63.7754 C1            1 Polymer 
    3066 C0         -80.0814   154.2569   -60.5218 C0            1 Polymer 
    3067 C0         -80.8905   155.5508   -60.8604 C0            1 Polymer 
    3068 C0         -80.1642   156.8249   -60.2936 C0            1 Polymer 
    3069 C0         -80.5534   158.1354   -61.0109 C0            1 Polymer 
    3070 C0         -80.1473   159.4183   -60.2416 C0            1 Polymer 
    3071 C0         -80.7271   160.6698   -60.9463 C0            1 Polymer 
    3072 C0         -80.8734   161.9165   -60.0426 C0            1 Polymer 
    3073 C0         -79.6176   162.7452   -59.7146 C0            1 Polymer 
    3074 C0         -79.1240   163.5416   -60.9334 C0            1 Polymer 
    3075 C0         -78.0112   164.5608   -60.6123 C0            1 Polymer 
    3076 C0         -78.5282   165.7900   -59.8449 C0            1 Polymer 
    3077 C0         -77.4354   166.8478   -59.6884 C0            1 Polymer 
    3078 C0         -82.3016   155.3438   -60.1793 C0            1 Polymer 
    3079 C0         -83.5025   156.1689   -60.6201 C0            1 Polymer 
    3080 C0         -84.7532   155.8189   -59.7650 C0            1 Polymer 
    3081 C0         -85.9733   156.3762   -60.4782 C0            1 Polymer 
    3082 C0         -87.3445   156.2775   -59.8126 C0            1 Polymer 
    3083 C0         -88.3702   156.8399   -60.8225 C0            1 Polymer 
    3084 C0         -89.8112   156.8236   -60.3189 C0            1 Polymer 
    3085 C0         -90.7446   157.3975   -61.3888 C0            1 Polymer 
    3086 C0         -78.8073   153.3632   -62.6947 C0            1 Polymer 
    3087 C0         -77.2811   153.6472   -62.4747 C0            1 Polymer 
    3088 C0         -76.4263   152.4052   -62.0563 C0            1 Polymer 
    3089 C0         -74.9223   152.6090   -62.3825 C0            1 Polymer 
    3090 C0         -73.9861   151.3910   -62.2726 C0            1 Polymer 
    3091 C0         -72.5559   151.8535   -62.6630 C0            1 Polymer 
    3092 C0         -71.4589   150.7859   -62.5130 C0            1 Polymer 
    3093 C0         -70.0664   151.4000   -62.7980 C0            1 Polymer 
    3094 C0         -68.9163   150.4389   -62.4476 C0            1 Polymer 
    3095 C0         -67.5382   151.1129   -62.5589 C0            1 Polymer 
    3096 C0         -66.4557   150.2405   -61.9007 C0            1 Polymer 
    3097 C0         -65.0739   150.8816   -61.9950 C0            1 Polymer 
    3098 C0         -77.0711   154.9993   -61.7300 C0            1 Polymer 
    3099 C0         -75.7029   155.6576   -61.8552 C0            1 Polymer 
    3100 C0         -75.8030   157.1614   -61.5926 C0            1 Polymer 
    3101 C0         -74.4106   157.7892   -61.6653 C0            1 Polymer 
    3102 C0         -74.4520   159.3024   -61.8637 C0            1 Polymer 
    3103 C0         -75.0713   160.0572   -60.6850 C0            1 Polymer 
    3104 C0         -75.1169   161.5713   -60.9320 C0            1 Polymer 
    3105 C0         -76.0225   161.9444   -62.1069 C0            1 Polymer 
    3106 H4         -78.7540   150.4778   -62.1150 H4            1 Polymer 
    3107 H5         -78.5898   148.7159   -63.2582 H5            1 Polymer 
    3108 H4         -80.9088   153.6357   -64.4694 H4            1 Polymer 
    3109 H6         -80.5039   153.8505   -59.5734 H6            1 Polymer 
    3110 H6         -79.1017   154.4655   -60.1142 H6            1 Polymer 
    3111 H6         -80.9236   155.6198   -61.9689 H6            1 Polymer 
    3112 H6         -79.0645   156.7470   -60.4267 H6            1 Polymer 
    3113 H6         -80.3524   156.8820   -59.1995 H6            1 Polymer 
    3114 H6         -81.6399   158.1773   -61.1250 H6            1 Polymer 
    3115 H6         -80.1198   158.1254   -62.0308 H6            1 Polymer 
    3116 H6         -79.0472   159.5060   -60.1075 H6            1 Polymer 
    3117 H6         -80.6199   159.3387   -59.2387 H6            1 Polymer 
    3118 H6         -81.7771   160.4197   -61.2111 H6            1 Polymer 
    3119 H6         -80.1875   160.8818   -61.8915 H6            1 Polymer 
    3120 H6         -81.5944   162.6112   -60.5296 H6            1 Polymer 
    3121 H6         -81.3467   161.5874   -59.0931 H6            1 Polymer 
    3122 H6         -79.9294   163.4791   -58.9435 H6            1 Polymer 
    3123 H6         -78.8118   162.1107   -59.2876 H6            1 Polymer 
    3124 H6         -78.7614   162.8253   -61.6895 H6            1 Polymer 
    3125 H6         -79.9714   164.1002   -61.3801 H6            1 Polymer 
    3126 H6         -77.6159   164.9402   -61.5714 H6            1 Polymer 
    3127 H6         -77.1733   164.0701   -60.0732 H6            1 Polymer 
    3128 H6         -78.8960   165.5005   -58.8403 H6            1 Polymer 
    3129 H6         -79.3665   166.2500   -60.4143 H6            1 Polymer 
    3130 H6         -77.0654   167.1798   -60.6824 H6            1 Polymer 
    3131 H6         -76.5832   166.4436   -59.1040 H6            1 Polymer 
    3132 H6         -77.8474   167.7340   -59.1606 H6            1 Polymer 
    3133 H6         -82.1778   155.4377   -59.0770 H6            1 Polymer 
    3134 H6         -82.6339   154.3068   -60.3670 H6            1 Polymer 
    3135 H6         -83.6720   155.9255   -61.6926 H6            1 Polymer 
    3136 H6         -83.3543   157.2540   -60.5126 H6            1 Polymer 
    3137 H6         -84.8881   154.7184   -59.6718 H6            1 Polymer 
    3138 H6         -84.6384   156.2558   -58.7492 H6            1 Polymer 
    3139 H6         -86.0439   155.7559   -61.3889 H6            1 Polymer 
    3140 H6         -85.7864   157.4507   -60.7039 H6            1 Polymer 
    3141 H6         -87.5819   155.2171   -59.5787 H6            1 Polymer 
    3142 H6         -87.3561   156.8756   -58.8764 H6            1 Polymer 
    3143 H6         -88.0967   157.8910   -61.0700 H6            1 Polymer 
    3144 H6         -88.3230   156.2377   -61.7585 H6            1 Polymer 
    3145 H6         -90.1169   155.7801   -60.0914 H6            1 Polymer 
    3146 H6         -89.8929   157.4381   -59.3973 H6            1 Polymer 
    3147 H6         -90.4629   158.4463   -61.6283 H6            1 Polymer 
    3148 H6         -90.6866   156.7928   -62.3202 H6            1 Polymer 
    3149 H6         -91.7925   157.3867   -61.0247 H6            1 Polymer 
    3150 H6         -79.1442   154.2603   -63.2590 H6            1 Polymer 
    3151 H6         -78.8492   152.5174   -63.4177 H6            1 Polymer 
    3152 H6         -76.9564   153.8504   -63.5219 H6            1 Polymer 
    3153 H6         -76.5985   152.1375   -60.9979 H6            1 Polymer 
    3154 H6         -76.7534   151.5530   -62.6892 H6            1 Polymer 
    3155 H6         -74.5054   153.3514   -61.6969 H6            1 Polymer 
    3156 H6         -74.8443   152.9771   -63.4292 H6            1 Polymer 
    3157 H6         -73.9996   151.0158   -61.2280 H6            1 Polymer 
    3158 H6         -74.3198   150.5783   -62.9529 H6            1 Polymer 
    3159 H6         -72.2851   152.7063   -62.0024 H6            1 Polymer 
    3160 H6         -72.5582   152.2182   -63.7138 H6            1 Polymer 
    3161 H6         -71.4794   150.4239   -61.4710 H6            1 Polymer 
    3162 H6         -71.6489   149.9229   -63.1857 H6            1 Polymer 
    3163 H6         -69.9944   151.7138   -63.8618 H6            1 Polymer 
    3164 H6         -69.9505   152.3030   -62.1577 H6            1 Polymer 
    3165 H6         -68.9540   149.5208   -63.0710 H6            1 Polymer 
    3166 H6         -69.0331   150.1305   -61.4036 H6            1 Polymer 
    3167 H6         -67.3032   151.3031   -63.6284 H6            1 Polymer 
    3168 H6         -67.5546   152.0860   -62.0185 H6            1 Polymer 
    3169 H6         -66.7026   150.1105   -60.8223 H6            1 Polymer 
    3170 H6         -66.4248   149.2390   -62.3796 H6            1 Polymer 
    3171 H6         -64.7703   150.9851   -63.0575 H6            1 Polymer 
    3172 H6         -65.0731   151.8825   -61.5124 H6            1 Polymer 
    3173 H6         -64.3319   150.2398   -61.4728 H6            1 Polymer 
    3174 H6         -77.2625   154.9494   -60.6545 H6            1 Polymer 
    3175 H6         -77.7944   155.6998   -62.2028 H6            1 Polymer 
    3176 H6         -75.3194   155.5236   -62.8904 H6            1 Polymer 
    3177 H6         -75.0035   155.2306   -61.1152 H6            1 Polymer 
    3178 H6         -76.2750   157.3806   -60.6175 H6            1 Polymer 
    3179 H6         -76.4538   157.5933   -62.3799 H6            1 Polymer 
    3180 H6         -73.7954   157.4908   -60.7983 H6            1 Polymer 
    3181 H6         -73.9079   157.3815   -62.5435 H6            1 Polymer 
    3182 H6         -73.4142   159.6667   -62.0227 H6            1 Polymer 
    3183 H6         -75.0295   159.4909   -62.7893 H6            1 Polymer 
    3184 H6         -74.4548   159.8653   -59.7848 H6            1 Polymer 
    3185 H6         -76.1039   159.6991   -60.4862 H6            1 Polymer 
    3186 H6         -74.0929   161.9645   -61.1121 H6            1 Polymer 
    3187 H6         -75.5198   162.0529   -60.0155 H6            1 Polymer 
    3188 H6         -76.0912   163.0474   -62.1892 H6            1 Polymer 
    3189 H6         -75.6290   161.5690   -63.0713 H6            1 Polymer 
    3190 H6         -77.0308   161.5145   -61.9451 H6            1 Polymer 
    3191 C0         -83.8153   160.2429   -64.5550 C0            1 Polymer 
    3192 C1         -85.0847   160.0263   -65.3392 C1            1 Polymer 
    3193 C1         -85.9955   159.3359   -64.6575 C1            1 Polymer 
    3194 C1         -85.4069   158.7781   -63.4376 C1            1 Polymer 
    3195 C1         -83.8706   158.9038   -63.7598 C1            1 Polymer 
    3196 C1         -83.5545   157.6885   -64.5684 C1            1 Polymer 
    3197 C1         -84.4903   156.7325   -64.5675 C1            1 Polymer 
    3198 S2         -85.8728   157.0692   -63.5067 S2            1 Polymer 
    3199 C1         -84.3062   155.3906   -65.1559 C1            1 Polymer 
    3200 C1         -83.1337   155.0842   -65.8703 C1            1 Polymer 
    3201 N3         -82.7826   153.7933   -66.0648 N3            1 Polymer 
    3202 C1         -83.4597   152.7940   -65.4431 C1            1 Polymer 
    3203 C1         -84.8041   152.9978   -65.1472 C1            1 Polymer 
    3204 C1         -85.2201   154.3310   -64.9242 C1            1 Polymer 
    3205 N3         -86.4598   154.4577   -64.3787 N3            1 Polymer 
    3206 S2         -86.9577   152.8935   -64.2118 S2            1 Polymer 
    3207 N3         -85.6626   152.0238   -64.7430 N3            1 Polymer 
    3208 S2         -87.2952   158.8966   -65.6324 S2            1 Polymer 
    3209 C1         -86.6582   159.6468   -67.0185 C1            1 Polymer 
    3210 C1         -85.4187   160.2178   -66.6771 C1            1 Polymer 
    3211 C0         -83.9375   161.3736   -63.4406 C0            1 Polymer 
    3212 C0         -84.7430   162.6678   -63.7877 C0            1 Polymer 
    3213 C0         -84.0181   163.9421   -63.2198 C0            1 Polymer 
    3214 C0         -84.4039   165.2519   -63.9403 C0            1 Polymer 
    3215 C0         -84.0012   166.5353   -63.1702 C0            1 Polymer 
    3216 C0         -84.5840   167.7861   -63.8738 C0            1 Polymer 
    3217 C0         -84.7296   169.0318   -62.9687 C0            1 Polymer 
    3218 C0         -83.4741   169.8629   -62.6461 C0            1 Polymer 
    3219 C0         -82.9879   170.6603   -63.8673 C0            1 Polymer 
    3220 C0         -81.8770   171.6829   -63.5513 C0            1 Polymer 
    3221 C0         -82.3945   172.9100   -62.7809 C0            1 Polymer 
    3222 C0         -81.3038   173.9701   -62.6258 C0            1 Polymer 
    3223 C0         -86.1587   162.4648   -63.1152 C0            1 Polymer 
    3224 C0         -87.3568   163.2903   -63.5640 C0            1 Polymer 
    3225 C0         -88.6103   162.9431   -62.7123 C0            1 Polymer 
    3226 C0         -89.8281   163.5015   -63.4279 C0            1 Polymer 
    3227 C0         -91.1986   163.4031   -62.7599 C0            1 Polymer 
    3228 C0         -92.2278   163.9666   -63.7652 C0            1 Polymer 
    3229 C0         -93.6666   163.9506   -63.2549 C0            1 Polymer 
    3230 C0         -94.6051   164.5268   -64.3191 C0            1 Polymer 
    3231 C0         -82.6688   160.4809   -65.6191 C0            1 Polymer 
    3232 C0         -81.1422   160.7661   -65.4055 C0            1 Polymer 
    3233 C0         -80.2850   159.5255   -64.9875 C0            1 Polymer 
    3234 C0         -78.7828   159.7263   -65.3238 C0            1 Polymer 
    3235 C0         -77.8480   158.5084   -65.2025 C0            1 Polymer 
    3236 C0         -76.4172   158.9637   -65.5989 C0            1 Polymer 
    3237 C0         -75.3228   157.8955   -65.4352 C0            1 Polymer 
    3238 C0         -73.9284   158.5022   -65.7263 C0            1 Polymer 
    3239 C0         -72.7818   157.5426   -65.3606 C0            1 Polymer 
    3240 C0         -71.4008   158.2083   -65.4821 C0            1 Polymer 
    3241 C0         -70.3225   157.3390   -64.8126 C0            1 Polymer 
    3242 C0         -68.9374   157.9716   -64.9159 C0            1 Polymer 
    3243 C0         -80.9337   162.1170   -64.6601 C0            1 Polymer 
    3244 C0         -79.5653   162.7746   -64.7788 C0            1 Polymer 
    3245 C0         -79.6681   164.2773   -64.5129 C0            1 Polymer 
    3246 C0         -78.2765   164.9070   -64.5771 C0            1 Polymer 
    3247 C0         -78.3197   166.4203   -64.7738 C0            1 Polymer 
    3248 C0         -78.9560   167.1723   -63.6023 C0            1 Polymer 
    3249 C0         -79.0022   168.6865   -63.8485 C0            1 Polymer 
    3250 C0         -79.8899   169.0589   -65.0374 C0            1 Polymer 
    3251 H4         -82.5993   157.6024   -65.0508 H4            1 Polymer 
    3252 H5         -82.4259   155.8333   -66.1820 H5            1 Polymer 
    3253 H4         -84.7879   160.7481   -67.3754 H4            1 Polymer 
    3254 H6         -84.3667   160.9698   -62.4943 H6            1 Polymer 
    3255 H6         -82.9596   161.5821   -63.0285 H6            1 Polymer 
    3256 H6         -84.7695   162.7342   -64.8965 H6            1 Polymer 
    3257 H6         -82.9180   163.8633   -63.3482 H6            1 Polymer 
    3258 H6         -84.2112   164.0007   -62.1267 H6            1 Polymer 
    3259 H6         -85.4896   165.2937   -64.0589 H6            1 Polymer 
    3260 H6         -83.9658   165.2411   -64.9583 H6            1 Polymer 
    3261 H6         -82.9014   166.6249   -63.0352 H6            1 Polymer 
    3262 H6         -84.4745   166.4542   -62.1678 H6            1 Polymer 
    3263 H6         -85.6343   167.5350   -64.1369 H6            1 Polymer 
    3264 H6         -84.0468   167.9997   -64.8202 H6            1 Polymer 
    3265 H6         -85.4542   169.7252   -63.4522 H6            1 Polymer 
    3266 H6         -85.1983   168.7012   -62.0173 H6            1 Polymer 
    3267 H6         -83.7841   170.5957   -61.8734 H6            1 Polymer 
    3268 H6         -82.6649   169.2300   -62.2229 H6            1 Polymer 
    3269 H6         -82.6259   169.9448   -64.6245 H6            1 Polymer 
    3270 H6         -83.8387   171.2163   -64.3110 H6            1 Polymer 
    3271 H6         -81.4872   172.0632   -64.5125 H6            1 Polymer 
    3272 H6         -81.0354   171.1947   -63.0157 H6            1 Polymer 
    3273 H6         -82.7582   172.6184   -61.7754 H6            1 Polymer 
    3274 H6         -83.2359   173.3686   -63.3470 H6            1 Polymer 
    3275 H6         -80.9375   174.3048   -63.6201 H6            1 Polymer 
    3276 H6         -80.4490   173.5670   -62.0446 H6            1 Polymer 
    3277 H6         -81.7165   174.8543   -62.0950 H6            1 Polymer 
    3278 H6         -86.0409   162.5608   -62.0124 H6            1 Polymer 
    3279 H6         -86.4913   161.4279   -63.3025 H6            1 Polymer 
    3280 H6         -87.5233   163.0454   -64.6369 H6            1 Polymer 
    3281 H6         -87.2089   164.3754   -63.4577 H6            1 Polymer 
    3282 H6         -88.7470   161.8428   -62.6186 H6            1 Polymer 
    3283 H6         -88.4974   163.3806   -61.6965 H6            1 Polymer 
    3284 H6         -89.8972   162.8817   -64.3390 H6            1 Polymer 
    3285 H6         -89.6403   164.5758   -63.6540 H6            1 Polymer 
    3286 H6         -91.4358   162.3427   -62.5259 H6            1 Polymer 
    3287 H6         -91.2075   164.0005   -61.8232 H6            1 Polymer 
    3288 H6         -91.9547   165.0177   -64.0129 H6            1 Polymer 
    3289 H6         -92.1851   163.3646   -64.7014 H6            1 Polymer 
    3290 H6         -93.9720   162.9069   -63.0274 H6            1 Polymer 
    3291 H6         -93.7437   164.5637   -62.3319 H6            1 Polymer 
    3292 H6         -94.3242   165.5760   -64.5579 H6            1 Polymer 
    3293 H6         -94.5519   163.9239   -65.2519 H6            1 Polymer 
    3294 H6         -95.6511   164.5158   -63.9498 H6            1 Polymer 
    3295 H6         -83.0109   161.3767   -66.1821 H6            1 Polymer 
    3296 H6         -82.7129   159.6352   -66.3421 H6            1 Polymer 
    3297 H6         -80.8205   160.9694   -66.4535 H6            1 Polymer 
    3298 H6         -80.4509   159.2627   -63.9268 H6            1 Polymer 
    3299 H6         -80.6149   158.6707   -65.6150 H6            1 Polymer 
    3300 H6         -78.3616   160.4768   -64.6500 H6            1 Polymer 
    3301 H6         -78.7095   160.0827   -66.3748 H6            1 Polymer 
    3302 H6         -77.8607   158.1454   -64.1537 H6            1 Polymer 
    3303 H6         -78.1841   157.6884   -65.8728 H6            1 Polymer 
    3304 H6         -76.1445   159.8235   -64.9481 H6            1 Polymer 
    3305 H6         -76.4190   159.3159   -66.6539 H6            1 Polymer 
    3306 H6         -75.3452   157.5463   -64.3890 H6            1 Polymer 
    3307 H6         -75.5145   157.0245   -66.0972 H6            1 Polymer 
    3308 H6         -73.8542   158.8008   -66.7943 H6            1 Polymer 
    3309 H6         -73.8106   159.4136   -65.0982 H6            1 Polymer 
    3310 H6         -72.8233   156.6148   -65.9693 H6            1 Polymer 
    3311 H6         -72.8996   157.2527   -64.3116 H6            1 Polymer 
    3312 H6         -71.1654   158.3822   -66.5542 H6            1 Polymer 
    3313 H6         -71.4122   159.1888   -64.9552 H6            1 Polymer 
    3314 H6         -70.5695   157.2243   -63.7326 H6            1 Polymer 
    3315 H6         -70.2969   156.3312   -65.2784 H6            1 Polymer 
    3316 H6         -68.6341   158.0602   -65.9798 H6            1 Polymer 
    3317 H6         -68.9311   158.9785   -64.4458 H6            1 Polymer 
    3318 H6         -68.1985   157.3325   -64.3861 H6            1 Polymer 
    3319 H6         -81.1270   162.0654   -63.5855 H6            1 Polymer 
    3320 H6         -81.6560   162.8180   -65.1337 H6            1 Polymer 
    3321 H6         -79.1778   162.6428   -65.8129 H6            1 Polymer 
    3322 H6         -78.8695   162.3450   -64.0364 H6            1 Polymer 
    3323 H6         -80.1449   164.4931   -63.5393 H6            1 Polymer 
    3324 H6         -80.3163   164.7108   -65.3015 H6            1 Polymer 
    3325 H6         -77.6669   164.6083   -63.7067 H6            1 Polymer 
    3326 H6         -77.7667   164.5014   -65.4523 H6            1 Polymer 
    3327 H6         -77.2812   166.7875   -64.9207 H6            1 Polymer 
    3328 H6         -78.8873   166.6077   -65.7057 H6            1 Polymer 
    3329 H6         -78.3516   166.9805   -62.6938 H6            1 Polymer 
    3330 H6         -79.9906   166.8120   -63.4181 H6            1 Polymer 
    3331 H6         -77.9764   169.0826   -64.0121 H6            1 Polymer 
    3332 H6         -79.4205   169.1659   -62.9378 H6            1 Polymer 
    3333 H6         -79.9600   170.1618   -65.1196 H6            1 Polymer 
    3334 H6         -79.4794   168.6862   -65.9959 H6            1 Polymer 
    3335 H6         -80.8998   168.6263   -64.8934 H6            1 Polymer 
    3336 C0         -87.7022   167.3560   -67.4966 C0            1 Polymer 
    3337 C1         -88.9663   167.1466   -68.2924 C1            1 Polymer 
    3338 C1         -89.8883   166.4636   -67.6184 C1            1 Polymer 
    3339 C1         -89.3161   165.9043   -66.3918 C1            1 Polymer 
    3340 C1         -87.7759   166.0190   -66.6994 C1            1 Polymer 
    3341 C1         -87.4585   164.7977   -67.4972 C1            1 Polymer 
    3342 C1         -88.3990   163.8457   -67.4987 C1            1 Polymer 
    3343 S2         -89.7954   164.1983   -66.4606 S2            1 Polymer 
    3344 C1         -88.2072   162.4961   -68.0679 C1            1 Polymer 
    3345 C1         -87.0338   162.1878   -68.7792 C1            1 Polymer 
    3346 N3         -86.6722   160.8979   -68.9541 N3            1 Polymer 
    3347 C1         -87.3434   159.9007   -68.3237 C1            1 Polymer 
    3348 C1         -88.6869   160.0999   -68.0198 C1            1 Polymer 
    3349 C1         -89.1120   161.4336   -67.8163 C1            1 Polymer 
    3350 N3         -90.3496   161.5589   -67.2654 N3            1 Polymer 
    3351 S2         -90.8347   159.9941   -67.0711 S2            1 Polymer 
    3352 N3         -89.5362   159.1258   -67.5963 N3            1 Polymer 
    3353 S2         -91.1800   166.0292   -68.6057 S2            1 Polymer 
    3354 C1         -90.5253   166.7724   -69.9875 C1            1 Polymer 
    3355 C1         -89.2862   167.3370   -69.6347 C1            1 Polymer 
    3356 C0         -87.8219   168.4871   -66.3827 C0            1 Polymer 
    3357 C0         -88.6203   169.7851   -66.7309 C0            1 Polymer 
    3358 C0         -87.8909   171.0553   -66.1596 C0            1 Polymer 
    3359 C0         -88.2726   172.3683   -66.8760 C0            1 Polymer 
    3360 C0         -87.8694   173.6483   -66.1009 C0            1 Polymer 
    3361 C0         -88.4533   174.9015   -66.7992 C0            1 Polymer 
    3362 C0         -88.5985   176.1437   -65.8893 C0            1 Polymer 
    3363 C0         -87.3431   176.9748   -65.5670 C0            1 Polymer 
    3364 C0         -86.8604   177.7760   -66.7871 C0            1 Polymer 
    3365 C0         -85.7496   178.7984   -66.4703 C0            1 Polymer 
    3366 C0         -86.2677   180.0241   -65.6981 C0            1 Polymer 
    3367 C0         -85.1775   181.0841   -65.5405 C0            1 Polymer 
    3368 C0         -90.0379   169.5877   -66.0610 C0            1 Polymer 
    3369 C0         -91.2334   170.4151   -66.5134 C0            1 Polymer 
    3370 C0         -92.4869   170.0740   -65.6601 C0            1 Polymer 
    3371 C0         -93.7045   170.6309   -66.3770 C0            1 Polymer 
    3372 C0         -95.0724   170.5361   -65.7037 C0            1 Polymer 
    3373 C0         -96.1057   171.0917   -66.7086 C0            1 Polymer 
    3374 C0         -97.5418   171.0771   -66.1909 C0            1 Polymer 
    3375 C0         -98.4871   171.6417   -67.2550 C0            1 Polymer 
    3376 C0         -86.5459   167.5874   -68.5515 C0            1 Polymer 
    3377 C0         -85.0203   167.8721   -68.3298 C0            1 Polymer 
    3378 C0         -84.1665   166.6314   -67.9064 C0            1 Polymer 
    3379 C0         -82.6628   166.8332   -68.2345 C0            1 Polymer 
    3380 C0         -81.7265   165.6164   -68.1154 C0            1 Polymer 
    3381 C0         -80.2963   166.0765   -68.5087 C0            1 Polymer 
    3382 C0         -79.1991   165.0107   -68.3498 C0            1 Polymer 
    3383 C0         -77.8068   165.6220   -68.6410 C0            1 Polymer 
    3384 C0         -76.6580   164.6641   -68.2784 C0            1 Polymer 
    3385 C0         -75.2786   165.3334   -68.3978 C0            1 Polymer 
    3386 C0         -74.1988   164.4654   -67.7292 C0            1 Polymer 
    3387 C0         -72.8150   165.1010   -67.8305 C0            1 Polymer 
    3388 C0         -84.8120   169.2257   -67.5874 C0            1 Polymer 
    3389 C0         -83.4435   169.8843   -67.7094 C0            1 Polymer 
    3390 C0         -83.5450   171.3882   -67.4474 C0            1 Polymer 
    3391 C0         -82.1532   172.0178   -67.5196 C0            1 Polymer 
    3392 C0         -82.1965   173.5310   -67.7170 C0            1 Polymer 
    3393 C0         -82.8185   174.2853   -66.5395 C0            1 Polymer 
    3394 C0         -82.8671   175.7991   -66.7884 C0            1 Polymer 
    3395 C0         -83.7719   176.1689   -67.9650 C0            1 Polymer 
    3396 H4         -86.4961   164.7029   -67.9644 H4            1 Polymer 
    3397 H5         -86.3325   162.9379   -69.1038 H5            1 Polymer 
    3398 H4         -88.6460   167.8609   -70.3289 H4            1 Polymer 
    3399 H6         -88.2540   168.0857   -65.4366 H6            1 Polymer 
    3400 H6         -86.8433   168.6896   -65.9688 H6            1 Polymer 
    3401 H6         -88.6441   169.8523   -67.8397 H6            1 Polymer 
    3402 H6         -86.7910   170.9733   -66.2874 H6            1 Polymer 
    3403 H6         -88.0841   171.1115   -65.0664 H6            1 Polymer 
    3404 H6         -89.3578   172.4122   -66.9952 H6            1 Polymer 
    3405 H6         -87.8339   172.3606   -67.8938 H6            1 Polymer 
    3406 H6         -86.7695   173.7373   -65.9660 H6            1 Polymer 
    3407 H6         -88.3421   173.5632   -65.0985 H6            1 Polymer 
    3408 H6         -89.5039   174.6511   -67.0617 H6            1 Polymer 
    3409 H6         -87.9175   175.1184   -67.7455 H6            1 Polymer 
    3410 H6         -89.3247   176.8381   -66.3690 H6            1 Polymer 
    3411 H6         -89.0649   175.8095   -64.9382 H6            1 Polymer 
    3412 H6         -87.6520   177.7051   -64.7914 H6            1 Polymer 
    3413 H6         -86.5325   176.3413   -65.1475 H6            1 Polymer 
    3414 H6         -86.4995   177.0630   -67.5472 H6            1 Polymer 
    3415 H6         -87.7126   178.3324   -67.2275 H6            1 Polymer 
    3416 H6         -85.3605   179.1805   -67.4309 H6            1 Polymer 
    3417 H6         -84.9075   178.3095   -65.9361 H6            1 Polymer 
    3418 H6         -86.6322   179.7308   -64.6933 H6            1 Polymer 
    3419 H6         -87.1088   180.4834   -66.2642 H6            1 Polymer 
    3420 H6         -84.8101   181.4203   -66.5339 H6            1 Polymer 
    3421 H6         -84.3233   180.6803   -64.9589 H6            1 Polymer 
    3422 H6         -85.5909   181.9675   -65.0089 H6            1 Polymer 
    3423 H6         -89.9217   169.6851   -64.9581 H6            1 Polymer 
    3424 H6         -90.3732   168.5513   -66.2470 H6            1 Polymer 
    3425 H6         -91.4003   170.1666   -67.5853 H6            1 Polymer 
    3426 H6         -91.0840   171.5002   -66.4114 H6            1 Polymer 
    3427 H6         -92.6254   168.9744   -65.5612 H6            1 Polymer 
    3428 H6         -92.3727   170.5158   -64.6463 H6            1 Polymer 
    3429 H6         -93.7766   170.0071   -67.2850 H6            1 Polymer 
    3430 H6         -93.5165   171.7038   -66.6092 H6            1 Polymer 
    3431 H6         -95.3079   169.4771   -65.4620 H6            1 Polymer 
    3432 H6         -95.0781   171.1395   -64.7708 H6            1 Polymer 
    3433 H6         -95.8349   172.1413   -66.9651 H6            1 Polymer 
    3434 H6         -96.0661   170.4830   -67.6407 H6            1 Polymer 
    3435 H6         -97.8438   170.0349   -65.9526 H6            1 Polymer 
    3436 H6         -97.6152   171.6980   -65.2728 H6            1 Polymer 
    3437 H6         -98.2094   172.6891   -67.5051 H6            1 Polymer 
    3438 H6         -98.4378   171.0300   -68.1823 H6            1 Polymer 
    3439 H6         -99.5310   171.6319   -66.8797 H6            1 Polymer 
    3440 H6         -86.8816   168.4830   -69.1188 H6            1 Polymer 
    3441 H6         -86.5872   166.7396   -69.2723 H6            1 Polymer 
    3442 H6         -84.6940   168.0727   -69.3770 H6            1 Polymer 
    3443 H6         -84.3387   166.3690   -66.8468 H6            1 Polymer 
    3444 H6         -84.4942   165.7764   -68.5352 H6            1 Polymer 
    3445 H6         -82.2457   167.5809   -67.5551 H6            1 Polymer 
    3446 H6         -82.5851   167.1938   -69.2839 H6            1 Polymer 
    3447 H6         -81.7405   165.2493   -67.0680 H6            1 Polymer 
    3448 H6         -82.0599   164.7985   -68.7895 H6            1 Polymer 
    3449 H6         -80.0259   166.9344   -67.8544 H6            1 Polymer 
    3450 H6         -80.2986   166.4329   -69.5623 H6            1 Polymer 
    3451 H6         -79.2185   164.6584   -67.3047 H6            1 Polymer 
    3452 H6         -79.3893   164.1413   -69.0142 H6            1 Polymer 
    3453 H6         -77.7344   165.9235   -69.7084 H6            1 Polymer 
    3454 H6         -77.6907   166.5321   -68.0109 H6            1 Polymer 
    3455 H6         -76.6973   163.7380   -68.8897 H6            1 Polymer 
    3456 H6         -76.7758   164.3707   -67.2305 H6            1 Polymer 
    3457 H6         -75.0430   165.5100   -69.4695 H6            1 Polymer 
    3458 H6         -75.2925   166.3129   -67.8690 H6            1 Polymer 
    3459 H6         -74.4463   164.3483   -66.6495 H6            1 Polymer 
    3460 H6         -74.1708   163.4584   -68.1967 H6            1 Polymer 
    3461 H6         -72.5111   165.1918   -68.8941 H6            1 Polymer 
    3462 H6         -72.8111   166.1072   -67.3589 H6            1 Polymer 
    3463 H6         -72.0752   164.4626   -67.3012 H6            1 Polymer 
    3464 H6         -85.0062   169.1774   -66.5124 H6            1 Polymer 
    3465 H6         -85.5339   169.9252   -68.0637 H6            1 Polymer 
    3466 H6         -83.0576   169.7496   -68.7435 H6            1 Polymer 
    3467 H6         -82.7460   169.4579   -66.9672 H6            1 Polymer 
    3468 H6         -84.0178   171.6067   -66.4724 H6            1 Polymer 
    3469 H6         -84.1960   171.8198   -68.2350 H6            1 Polymer 
    3470 H6         -81.5381   171.7195   -66.6525 H6            1 Polymer 
    3471 H6         -81.6493   171.6128   -68.3987 H6            1 Polymer 
    3472 H6         -81.1591   173.8969   -67.8750 H6            1 Polymer 
    3473 H6         -82.7734   173.7181   -68.6430 H6            1 Polymer 
    3474 H6         -82.2026   174.0954   -65.6384 H6            1 Polymer 
    3475 H6         -83.8507   173.9254   -66.3415 H6            1 Polymer 
    3476 H6         -81.8436   176.1943   -66.9677 H6            1 Polymer 
    3477 H6         -83.2720   176.2810   -65.8730 H6            1 Polymer 
    3478 H6         -83.8428   177.2717   -68.0487 H6            1 Polymer 
    3479 H6         -83.3761   175.7937   -68.9285 H6            1 Polymer 
    3480 H6         -84.7795   175.7369   -67.8044 H6            1 Polymer 
    3481 C0         -91.5750   174.4741   -70.4297 C0            1 Polymer 
    3482 C1         -92.8408   174.2701   -71.2249 C1            1 Polymer 
    3483 C1         -93.7602   173.5789   -70.5553 C1            1 Polymer 
    3484 C1         -93.1839   173.0077   -69.3360 C1            1 Polymer 
    3485 C1         -91.6448   173.1295   -69.6456 C1            1 Polymer 
    3486 C1         -91.3250   171.9167   -70.4548 C1            1 Polymer 
    3487 C1         -92.2621   170.9616   -70.4639 C1            1 Polymer 
    3488 S2         -93.6584   171.3002   -69.4209 S2            1 Polymer 
    3489 C1         -92.0657   169.6169   -71.0424 C1            1 Polymer 
    3490 C1         -90.8854   169.3135   -71.7453 C1            1 Polymer 
    3491 N3         -90.5209   168.0245   -71.9223 N3            1 Polymer 
    3492 C1         -91.1965   167.0244   -71.3005 C1            1 Polymer 
    3493 C1         -92.5436   167.2205   -71.0112 C1            1 Polymer 
    3494 C1         -92.9724   168.5521   -70.8053 C1            1 Polymer 
    3495 N3         -94.2157   168.6739   -70.2666 N3            1 Polymer 
    3496 S2         -94.7009   167.1072   -70.0850 S2            1 Polymer 
    3497 N3         -93.3958   166.2433   -70.6006 N3            1 Polymer 
    3498 S2         -95.0518   173.1501   -71.5443 S2            1 Polymer 
    3499 C1         -94.3935   173.9074   -72.9138 C1            1 Polymer 
    3500 C1         -93.1632   174.4716   -72.5653 C1            1 Polymer 
    3501 C0         -91.6939   175.5941   -69.3042 C0            1 Polymer 
    3502 C0         -92.5038   176.8900   -69.6324 C0            1 Polymer 
    3503 C0         -91.7738   178.1608   -69.0633 C0            1 Polymer 
    3504 C0         -92.1673   179.4744   -69.7723 C0            1 Polymer 
    3505 C0         -91.7585   180.7542   -68.9998 C0            1 Polymer 
    3506 C0         -92.3492   182.0065   -69.6936 C0            1 Polymer 
    3507 C0         -92.4860   183.2503   -68.7849 C0            1 Polymer 
    3508 C0         -91.2271   184.0802   -68.4732 C0            1 Polymer 
    3509 C0         -90.7483   184.8740   -69.6997 C0            1 Polymer 
    3510 C0         -89.6343   185.8957   -69.3921 C0            1 Polymer 
    3511 C0         -90.1459   187.1263   -68.6234 C0            1 Polymer 
    3512 C0         -89.0503   188.1815   -68.4693 C0            1 Polymer 
    3513 C0         -93.9127   176.6809   -68.9468 C0            1 Polymer 
    3514 C0         -95.1127   177.5115   -69.3799 C0            1 Polymer 
    3515 C0         -96.3641   177.1612   -68.5267 C0            1 Polymer 
    3516 C0         -97.5811   177.7260   -69.2395 C0            1 Polymer 
    3517 C0         -98.9539   177.6298   -68.5765 C0            1 Polymer 
    3518 C0         -99.9758   178.1947   -69.5887 C0            1 Polymer 
    3519 C0        -101.4181   178.1836   -69.0894 C0            1 Polymer 
    3520 C0        -102.3464   178.7559   -70.1646 C0            1 Polymer 
    3521 C0         -90.4201   174.7158   -71.4841 C0            1 Polymer 
    3522 C0         -88.8934   174.9964   -71.2609 C0            1 Polymer 
    3523 C0         -88.0415   173.7515   -70.8443 C0            1 Polymer 
    3524 C0         -86.5361   173.9518   -71.1670 C0            1 Polymer 
    3525 C0         -85.6039   172.7306   -71.0545 C0            1 Polymer 
    3526 C0         -84.1706   173.1878   -71.4400 C0            1 Polymer 
    3527 C0         -83.0776   172.1158   -71.2882 C0            1 Polymer 
    3528 C0         -81.6820   172.7261   -71.5663 C0            1 Polymer 
    3529 C0         -80.5350   171.7602   -71.2172 C0            1 Polymer 
    3530 C0         -79.1560   172.4344   -71.3189 C0            1 Polymer 
    3531 C0         -78.0750   171.5580   -70.6634 C0            1 Polymer 
    3532 C0         -76.6936   172.2018   -70.7482 C0            1 Polymer 
    3533 C0         -88.6828   176.3456   -70.5110 C0            1 Polymer 
    3534 C0         -87.3130   177.0018   -70.6304 C0            1 Polymer 
    3535 C0         -87.4113   178.5052   -70.3642 C0            1 Polymer 
    3536 C0         -86.0186   179.1325   -70.4361 C0            1 Polymer 
    3537 C0         -86.0596   180.6458   -70.6352 C0            1 Polymer 
    3538 C0         -86.6782   181.4019   -69.4568 C0            1 Polymer 
    3539 C0         -86.7267   182.9155   -69.7067 C0            1 Polymer 
    3540 C0         -87.6385   183.2854   -70.8779 C0            1 Polymer 
    3541 H4         -90.3630   171.8290   -70.9235 H4            1 Polymer 
    3542 H5         -90.1807   170.0654   -72.0583 H5            1 Polymer 
    3543 H4         -92.5252   175.0023   -73.2561 H4            1 Polymer 
    3544 H6         -92.1164   175.1800   -68.3592 H6            1 Polymer 
    3545 H6         -90.7143   175.7994   -68.8940 H6            1 Polymer 
    3546 H6         -92.5424   176.9645   -70.7403 H6            1 Polymer 
    3547 H6         -90.6750   178.0835   -69.2031 H6            1 Polymer 
    3548 H6         -91.9562   178.2125   -67.9680 H6            1 Polymer 
    3549 H6         -93.2538   179.5165   -69.8805 H6            1 Polymer 
    3550 H6         -91.7399   179.4695   -70.7947 H6            1 Polymer 
    3551 H6         -90.6575   180.8443   -68.8751 H6            1 Polymer 
    3552 H6         -92.2221   180.6687   -67.9931 H6            1 Polymer 
    3553 H6         -93.4021   181.7561   -69.9470 H6            1 Polymer 
    3554 H6         -91.8212   182.2219   -70.6443 H6            1 Polymer 
    3555 H6         -93.2141   183.9450   -69.2611 H6            1 Polymer 
    3556 H6         -92.9461   182.9188   -67.8298 H6            1 Polymer 
    3557 H6         -91.5306   184.8146   -67.6994 H6            1 Polymer 
    3558 H6         -90.4157   183.4470   -68.0548 H6            1 Polymer 
    3559 H6         -90.3910   184.1557   -70.4567 H6            1 Polymer 
    3560 H6         -91.6014   185.4291   -70.1404 H6            1 Polymer 
    3561 H6         -89.2483   186.2723   -70.3561 H6            1 Polymer 
    3562 H6         -88.7916   185.4071   -68.8584 H6            1 Polymer 
    3563 H6         -90.5106   186.8385   -67.6172 H6            1 Polymer 
    3564 H6         -90.9854   187.5875   -69.1903 H6            1 Polymer 
    3565 H6         -88.6803   188.5125   -69.4633 H6            1 Polymer 
    3566 H6         -88.1984   187.7753   -67.8859 H6            1 Polymer 
    3567 H6         -89.4593   189.0687   -67.9407 H6            1 Polymer 
    3568 H6         -93.7851   176.7683   -67.8444 H6            1 Polymer 
    3569 H6         -94.2473   175.6452   -69.1401 H6            1 Polymer 
    3570 H6         -95.2839   177.2758   -70.4539 H6            1 Polymer 
    3571 H6         -94.9628   178.5953   -69.2647 H6            1 Polymer 
    3572 H6         -96.5025   176.0607   -68.4386 H6            1 Polymer 
    3573 H6         -96.2486   177.5930   -67.5087 H6            1 Polymer 
    3574 H6         -97.6513   177.1103   -70.1534 H6            1 Polymer 
    3575 H6         -97.3903   178.8007   -69.4615 H6            1 Polymer 
    3576 H6         -99.1944   176.5699   -68.3439 H6            1 Polymer 
    3577 H6         -98.9659   178.2273   -67.6399 H6            1 Polymer 
    3578 H6         -99.6986   179.2446   -69.8369 H6            1 Polymer 
    3579 H6         -99.9281   177.5909   -70.5237 H6            1 Polymer 
    3580 H6        -101.7274   177.1417   -68.8593 H6            1 Polymer 
    3581 H6        -101.5011   178.8015   -68.1701 H6            1 Polymer 
    3582 H6        -102.0607   179.8028   -70.4077 H6            1 Polymer 
    3583 H6        -102.2867   178.1472   -71.0934 H6            1 Polymer 
    3584 H6        -103.3955   178.7496   -69.8044 H6            1 Polymer 
    3585 H6         -90.7563   175.6163   -72.0433 H6            1 Polymer 
    3586 H6         -90.4624   173.8746   -72.2124 H6            1 Polymer 
    3587 H6         -88.5663   175.2026   -72.3067 H6            1 Polymer 
    3588 H6         -88.2165   173.4819   -69.7868 H6            1 Polymer 
    3589 H6         -88.3690   172.9017   -71.4800 H6            1 Polymer 
    3590 H6         -86.1187   174.6935   -70.4809 H6            1 Polymer 
    3591 H6         -86.4549   174.3198   -72.2135 H6            1 Polymer 
    3592 H6         -85.6217   172.3554   -70.0099 H6            1 Polymer 
    3593 H6         -85.9383   171.9191   -71.7357 H6            1 Polymer 
    3594 H6         -83.8989   174.0389   -70.7777 H6            1 Polymer 
    3595 H6         -84.1683   173.5536   -72.4904 H6            1 Polymer 
    3596 H6         -83.1024   171.7510   -70.2473 H6            1 Polymer 
    3597 H6         -83.2680   171.2551   -71.9638 H6            1 Polymer 
    3598 H6         -81.6055   173.0448   -72.6284 H6            1 Polymer 
    3599 H6         -81.5656   173.6257   -70.9214 H6            1 Polymer 
    3600 H6         -80.5713   170.8467   -71.8474 H6            1 Polymer 
    3601 H6         -80.6568   171.4438   -70.1759 H6            1 Polymer 
    3602 H6         -78.9172   172.6324   -72.3861 H6            1 Polymer 
    3603 H6         -79.1741   173.4035   -70.7716 H6            1 Polymer 
    3604 H6         -78.3255   171.4198   -69.5870 H6            1 Polymer 
    3605 H6         -78.0412   170.5603   -71.1498 H6            1 Polymer 
    3606 H6         -76.3864   172.3138   -71.8088 H6            1 Polymer 
    3607 H6         -76.6958   173.1992   -70.2582 H6            1 Polymer 
    3608 H6         -75.9524   171.5574   -70.2282 H6            1 Polymer 
    3609 H6         -88.8778   176.2930   -69.4363 H6            1 Polymer 
    3610 H6         -89.4034   177.0489   -70.9837 H6            1 Polymer 
    3611 H6         -86.9274   176.8698   -71.6651 H6            1 Polymer 
    3612 H6         -86.6160   176.5712   -69.8900 H6            1 Polymer 
    3613 H6         -87.8835   178.7228   -69.3888 H6            1 Polymer 
    3614 H6         -88.0616   178.9395   -71.1507 H6            1 Polymer 
    3615 H6         -85.4036   178.8336   -69.5692 H6            1 Polymer 
    3616 H6         -85.5156   178.7249   -71.3142 H6            1 Polymer 
    3617 H6         -85.0219   181.0101   -70.7951 H6            1 Polymer 
    3618 H6         -86.6373   180.8337   -71.5606 H6            1 Polymer 
    3619 H6         -86.0594   181.2125   -68.5577 H6            1 Polymer 
    3620 H6         -87.7098   181.0426   -69.2550 H6            1 Polymer 
    3621 H6         -85.7038   183.3094   -69.8923 H6            1 Polymer 
    3622 H6         -87.1258   183.3988   -68.7895 H6            1 Polymer 
    3623 H6         -87.7073   184.3882   -70.9630 H6            1 Polymer 
    3624 H6         -87.2504   182.9074   -71.8435 H6            1 Polymer 
    3625 H6         -88.6462   182.8568   -70.7094 H6            1 Polymer 
    3626 C0         -95.4343   181.6028   -73.3141 C0            1 Polymer 
    3627 C1         -96.7002   181.3863   -74.1043 C1            1 Polymer 
    3628 C1         -97.6160   180.6974   -73.4275 C1            1 Polymer 
    3629 C1         -97.0336   180.1397   -72.2037 C1            1 Polymer 
    3630 C1         -95.4951   180.2645   -72.5177 C1            1 Polymer 
    3631 C1         -95.1764   179.0499   -73.3259 C1            1 Polymer 
    3632 C1         -96.1138   178.0962   -73.3318 C1            1 Polymer 
    3633 S2         -97.4987   178.4297   -72.2724 S2            1 Polymer 
    3634 C1         -95.9264   176.7581   -73.9272 C1            1 Polymer 
    3635 C1         -94.7558   176.4590   -74.6472 C1            1 Polymer 
    3636 N3         -94.4029   175.1682   -74.8481 N3            1 Polymer 
    3637 C1         -95.0729   174.1605   -74.2277 C1            1 Polymer 
    3638 C1         -96.4155   174.3650   -73.9276 C1            1 Polymer 
    3639 C1         -96.8363   175.6913   -73.6936 C1            1 Polymer 
    3640 N3         -98.0773   175.8164   -73.1501 N3            1 Polymer 
    3641 S2         -98.5711   174.2513   -72.9955 S2            1 Polymer 
    3642 N3         -97.2744   173.3840   -73.5226 N3            1 Polymer 
    3643 S2         -98.9067   180.2533   -74.4134 S2            1 Polymer 
    3644 C1         -98.2590   180.9997   -75.7967 C1            1 Polymer 
    3645 C1         -97.0236   181.5734   -75.4457 C1            1 Polymer 
    3646 C0         -95.5576   182.7353   -72.2021 C0            1 Polymer 
    3647 C0         -96.3664   184.0270   -72.5511 C0            1 Polymer 
    3648 C0         -95.6421   185.3027   -71.9858 C0            1 Polymer 
    3649 C0         -96.0302   186.6118   -72.7057 C0            1 Polymer 
    3650 C0         -95.6224   187.8952   -71.9385 C0            1 Polymer 
    3651 C0         -96.2039   189.1456   -72.6431 C0            1 Polymer 
    3652 C0         -96.3451   190.3933   -71.7404 C0            1 Polymer 
    3653 C0         -95.0863   191.2194   -71.4184 C0            1 Polymer 
    3654 C0         -94.5951   192.0118   -72.6409 C0            1 Polymer 
    3655 C0         -93.4809   193.0308   -72.3249 C0            1 Polymer 
    3656 C0         -93.9957   194.2617   -71.5588 C0            1 Polymer 
    3657 C0         -92.9016   195.3180   -71.4026 C0            1 Polymer 
    3658 C0         -97.7819   183.8232   -71.8773 C0            1 Polymer 
    3659 C0         -98.9820   184.6437   -72.3314 C0            1 Polymer 
    3660 C0        -100.2362   184.3023   -71.4780 C0            1 Polymer 
    3661 C0        -101.4537   184.8588   -72.1968 C0            1 Polymer 
    3662 C0        -102.8253   184.7683   -71.5299 C0            1 Polymer 
    3663 C0        -103.8508   185.3292   -72.5407 C0            1 Polymer 
    3664 C0        -105.2910   185.3194   -72.0341 C0            1 Polymer 
    3665 C0        -106.2255   185.8915   -73.1039 C0            1 Polymer 
    3666 C0         -94.2836   181.8388   -74.3745 C0            1 Polymer 
    3667 C0         -92.7565   182.1193   -74.1595 C0            1 Polymer 
    3668 C0         -91.9027   180.8752   -73.7451 C0            1 Polymer 
    3669 C0         -90.3998   181.0743   -74.0781 C0            1 Polymer 
    3670 C0         -89.4670   179.8539   -73.9662 C0            1 Polymer 
    3671 C0         -88.0365   180.3102   -74.3627 C0            1 Polymer 
    3672 C0         -86.9420   179.2411   -74.2064 C0            1 Polymer 
    3673 C0         -85.5482   179.8487   -74.4989 C0            1 Polymer 
    3674 C0         -84.4013   178.8882   -74.1369 C0            1 Polymer 
    3675 C0         -83.0201   179.5540   -74.2575 C0            1 Polymer 
    3676 C0         -81.9424   178.6841   -73.5878 C0            1 Polymer 
    3677 C0         -80.5570   179.3161   -73.6898 C0            1 Polymer 
    3678 C0         -92.5421   183.4692   -73.4132 C0            1 Polymer 
    3679 C0         -91.1724   184.1238   -73.5426 C0            1 Polymer 
    3680 C0         -91.2681   185.6277   -73.2820 C0            1 Polymer 
    3681 C0         -89.8755   186.2539   -73.3642 C0            1 Polymer 
    3682 C0         -89.9185   187.7669   -73.5623 C0            1 Polymer 
    3683 C0         -90.5346   188.5211   -72.3814 C0            1 Polymer 
    3684 C0         -90.5836   190.0349   -72.6289 C0            1 Polymer 
    3685 C0         -91.4951   190.4058   -73.8000 C0            1 Polymer 
    3686 H4         -94.2200   178.9646   -73.8054 H4            1 Polymer 
    3687 H5         -94.0495   177.2094   -74.9569 H5            1 Polymer 
    3688 H4         -96.3871   182.1003   -76.1412 H4            1 Polymer 
    3689 H6         -95.9839   182.3329   -71.2539 H6            1 Polymer 
    3690 H6         -94.5775   182.9473   -71.7960 H6            1 Polymer 
    3691 H6         -96.3936   184.0915   -73.6600 H6            1 Polymer 
    3692 H6         -94.5421   185.2249   -72.1171 H6            1 Polymer 
    3693 H6         -95.8324   185.3619   -70.8922 H6            1 Polymer 
    3694 H6         -97.1163   186.6551   -72.8187 H6            1 Polymer 
    3695 H6         -95.5970   186.5998   -73.7257 H6            1 Polymer 
    3696 H6         -94.5220   187.9826   -71.8070 H6            1 Polymer 
    3697 H6         -96.0929   187.8167   -70.9346 H6            1 Polymer 
    3698 H6         -97.2552   188.8965   -72.9040 H6            1 Polymer 
    3699 H6         -95.6672   189.3557   -73.5904 H6            1 Polymer 
    3700 H6         -97.0665   191.0887   -72.2255 H6            1 Polymer 
    3701 H6         -96.8154   190.0661   -70.7887 H6            1 Polymer 
    3702 H6         -95.3941   191.9552   -70.6477 H6            1 Polymer 
    3703 H6         -94.2804   190.5840   -70.9928 H6            1 Polymer 
    3704 H6         -94.2348   191.2930   -73.3960 H6            1 Polymer 
    3705 H6         -95.4430   192.5699   -73.0868 H6            1 Polymer 
    3706 H6         -93.0875   193.4073   -73.2862 H6            1 Polymer 
    3707 H6         -92.6424   192.5406   -71.7861 H6            1 Polymer 
    3708 H6         -94.3636   193.9740   -70.5536 H6            1 Polymer 
    3709 H6         -94.8337   194.7222   -72.1284 H6            1 Polymer 
    3710 H6         -92.5304   195.6488   -72.3964 H6            1 Polymer 
    3711 H6         -92.0504   194.9130   -70.8173 H6            1 Polymer 
    3712 H6         -93.3128   196.2050   -70.8754 H6            1 Polymer 
    3713 H6         -97.6644   183.9250   -70.7751 H6            1 Polymer 
    3714 H6         -98.1120   182.7845   -72.0592 H6            1 Polymer 
    3715 H6         -99.1480   184.3912   -73.4024 H6            1 Polymer 
    3716 H6         -98.8356   185.7296   -72.2332 H6            1 Polymer 
    3717 H6        -100.3736   183.2027   -71.3778 H6            1 Polymer 
    3718 H6        -100.1229   184.7457   -70.4648 H6            1 Polymer 
    3719 H6        -101.5253   184.2341   -73.1043 H6            1 Polymer 
    3720 H6        -101.2637   185.9314   -72.4288 H6            1 Polymer 
    3721 H6        -103.0660   183.7100   -71.2902 H6            1 Polymer 
    3722 H6        -102.8340   185.3712   -70.5967 H6            1 Polymer 
    3723 H6        -103.5745   186.3783   -72.7934 H6            1 Polymer 
    3724 H6        -103.8070   184.7225   -73.4740 H6            1 Polymer 
    3725 H6        -105.5993   184.2778   -71.8014 H6            1 Polymer 
    3726 H6        -105.3690   185.9380   -71.1148 H6            1 Polymer 
    3727 H6        -105.9416   186.9386   -73.3483 H6            1 Polymer 
    3728 H6        -106.1714   185.2830   -74.0331 H6            1 Polymer 
    3729 H6        -107.2725   185.8850   -72.7373 H6            1 Polymer 
    3730 H6         -94.6223   182.7363   -74.9371 H6            1 Polymer 
    3731 H6         -94.3280   180.9938   -75.0983 H6            1 Polymer 
    3732 H6         -92.4349   182.3232   -75.2075 H6            1 Polymer 
    3733 H6         -92.0707   180.6081   -72.6859 H6            1 Polymer 
    3734 H6         -92.2337   180.0238   -74.3768 H6            1 Polymer 
    3735 H6         -89.9781   181.8181   -73.3970 H6            1 Polymer 
    3736 H6         -90.3249   181.4385   -75.1263 H6            1 Polymer 
    3737 H6         -89.4788   179.4838   -72.9199 H6            1 Polymer 
    3738 H6         -89.8052   179.0390   -74.6415 H6            1 Polymer 
    3739 H6         -87.7621   181.1666   -73.7082 H6            1 Polymer 
    3740 H6         -88.0401   180.6678   -75.4159 H6            1 Polymer 
    3741 H6         -86.9615   178.8880   -73.1614 H6            1 Polymer 
    3742 H6         -87.1355   178.3727   -74.8711 H6            1 Polymer 
    3743 H6         -85.4760   180.1500   -75.5663 H6            1 Polymer 
    3744 H6         -85.4293   180.7586   -73.8688 H6            1 Polymer 
    3745 H6         -84.4433   177.9618   -74.7475 H6            1 Polymer 
    3746 H6         -84.5187   178.5959   -73.0887 H6            1 Polymer 
    3747 H6         -82.7843   179.7287   -75.3294 H6            1 Polymer 
    3748 H6         -83.0315   180.5341   -73.7299 H6            1 Polymer 
    3749 H6         -82.1901   178.5692   -72.5080 H6            1 Polymer 
    3750 H6         -81.9170   177.6764   -74.0538 H6            1 Polymer 
    3751 H6         -80.2526   179.4044   -74.7535 H6            1 Polymer 
    3752 H6         -80.5506   180.3229   -73.2197 H6            1 Polymer 
    3753 H6         -79.8189   178.6766   -73.1594 H6            1 Polymer 
    3754 H6         -92.7323   183.4181   -72.3374 H6            1 Polymer 
    3755 H6         -93.2652   184.1716   -73.8834 H6            1 Polymer 
    3756 H6         -90.7926   183.9878   -74.5790 H6            1 Polymer 
    3757 H6         -90.4717   183.6956   -72.8043 H6            1 Polymer 
    3758 H6         -91.7335   185.8482   -72.3038 H6            1 Polymer 
    3759 H6         -91.9227   186.0597   -74.0665 H6            1 Polymer 
    3760 H6         -89.2547   185.9559   -72.5009 H6            1 Polymer 
    3761 H6         -89.3785   185.8466   -74.2462 H6            1 Polymer 
    3762 H6         -88.8816   188.1320   -73.7256 H6            1 Polymer 
    3763 H6         -90.4999   187.9544   -74.4855 H6            1 Polymer 
    3764 H6         -89.9147   188.3298   -71.4836 H6            1 Polymer 
    3765 H6         -91.5661   188.1621   -72.1787 H6            1 Polymer 
    3766 H6         -89.5609   190.4293   -72.8137 H6            1 Polymer 
    3767 H6         -90.9832   190.5165   -71.7110 H6            1 Polymer 
    3768 H6         -91.5644   191.5086   -73.8837 H6            1 Polymer 
    3769 H6         -91.1060   190.0296   -74.7659 H6            1 Polymer 
    3770 H6         -92.5025   189.9759   -73.6326 H6            1 Polymer 
    3771 C0         -99.2912   188.7036   -76.2718 C0            1 Polymer 
    3772 C1        -100.5561   188.4909   -77.0638 C1            1 Polymer 
    3773 C1        -101.4725   187.8005   -76.3886 C1            1 Polymer 
    3774 C1        -100.8921   187.2411   -75.1655 C1            1 Polymer 
    3775 C1         -99.3542   187.3626   -75.4802 C1            1 Polymer 
    3776 C1         -99.0373   186.1448   -76.2849 C1            1 Polymer 
    3777 C1         -99.9734   185.1788   -76.2857 C1            1 Polymer 
    3778 S2        -101.3633   185.5335   -75.2334 S2            1 Polymer 
    3779 C1         -99.7792   183.8430   -76.8638 C1            1 Polymer 
    3780 C1         -98.6021   183.5372   -77.5700 C1            1 Polymer 
    3781 N3         -98.2533   182.2395   -77.7411 N3            1 Polymer 
    3782 C1         -98.9288   181.2437   -77.1124 C1            1 Polymer 
    3783 C1        -100.2757   181.4479   -76.8254 C1            1 Polymer 
    3784 C1        -100.7009   182.7811   -76.6228 C1            1 Polymer 
    3785 N3        -101.9320   182.9101   -76.0783 N3            1 Polymer 
    3786 S2        -102.4288   181.3443   -75.8866 S2            1 Polymer 
    3787 N3        -101.1303   180.4767   -76.4050 N3            1 Polymer 
    3788 S2        -102.7651   187.3628   -77.3735 S2            1 Polymer 
    3789 C1        -102.1194   188.1160   -78.7545 C1            1 Polymer 
    3790 C1        -100.8819   188.6852   -78.4035 C1            1 Polymer 
    3791 C0         -99.4149   189.8309   -75.1540 C0            1 Polymer 
    3792 C0        -100.2247   191.1244   -75.4939 C0            1 Polymer 
    3793 C0         -99.4997   192.3981   -74.9244 C0            1 Polymer 
    3794 C0         -99.8888   193.7098   -75.6393 C0            1 Polymer 
    3795 C0         -99.4827   194.9913   -74.8674 C0            1 Polymer 
    3796 C0        -100.0654   196.2440   -75.5675 C0            1 Polymer 
    3797 C0        -100.2099   197.4885   -74.6604 C0            1 Polymer 
    3798 C0         -98.9543   198.3201   -74.3385 C0            1 Polymer 
    3799 C0         -98.4715   199.1209   -75.5588 C0            1 Polymer 
    3800 C0         -97.3589   200.1418   -75.2429 C0            1 Polymer 
    3801 C0         -97.8736   201.3691   -74.4711 C0            1 Polymer 
    3802 C0         -96.7805   202.4265   -74.3145 C0            1 Polymer 
    3803 C0        -101.6376   190.9164   -74.8164 C0            1 Polymer 
    3804 C0        -102.8383   191.7423   -75.2576 C0            1 Polymer 
    3805 C0        -104.0892   191.3938   -74.4023 C0            1 Polymer 
    3806 C0        -105.3094   191.9539   -75.1136 C0            1 Polymer 
    3807 C0        -106.6791   191.8574   -74.4438 C0            1 Polymer 
    3808 C0        -107.7077   192.4215   -75.4497 C0            1 Polymer 
    3809 C0        -109.1468   192.4080   -74.9402 C0            1 Polymer 
    3810 C0        -110.0838   192.9830   -76.0064 C0            1 Polymer 
    3811 C0         -98.1397   188.9433   -77.3295 C0            1 Polymer 
    3812 C0         -96.6145   189.2282   -77.1084 C0            1 Polymer 
    3813 C0         -95.7618   187.9864   -76.6865 C0            1 Polymer 
    3814 C0         -94.2577   188.1873   -77.0107 C0            1 Polymer 
    3815 C0         -93.3262   186.9665   -76.8951 C0            1 Polymer 
    3816 C0         -91.8945   187.4222   -77.2858 C0            1 Polymer 
    3817 C0         -90.8023   186.3507   -77.1309 C0            1 Polymer 
    3818 C0         -89.4081   186.9588   -77.4188 C0            1 Polymer 
    3819 C0         -88.2608   185.9957   -77.0652 C0            1 Polymer 
    3820 C0         -86.8816   186.6659   -77.1832 C0            1 Polymer 
    3821 C0         -85.7990   185.7939   -76.5248 C0            1 Polymer 
    3822 C0         -84.4166   186.4327   -76.6257 C0            1 Polymer 
    3823 C0         -96.4068   190.5803   -76.3639 C0            1 Polymer 
    3824 C0         -95.0385   191.2388   -76.4856 C0            1 Polymer 
    3825 C0         -95.1408   192.7422   -76.2218 C0            1 Polymer 
    3826 C0         -93.7498   193.3729   -76.2944 C0            1 Polymer 
    3827 C0         -93.7953   194.8861   -76.4904 C0            1 Polymer 
    3828 C0         -94.4142   195.6379   -75.3095 C0            1 Polymer 
    3829 C0         -94.4658   197.1518   -75.5561 C0            1 Polymer 
    3830 C0         -95.3778   197.5216   -76.7270 C0            1 Polymer 
    3831 H4         -98.0785   186.0545   -76.7606 H4            1 Polymer 
    3832 H5         -97.9035   184.2788   -77.8826 H5            1 Polymer 
    3833 H4        -100.2466   189.2157   -79.0972 H4            1 Polymer 
    3834 H6         -99.8402   189.4231   -74.2077 H6            1 Polymer 
    3835 H6         -98.4365   190.0401   -74.7432 H6            1 Polymer 
    3836 H6        -100.2555   191.1943   -76.6024 H6            1 Polymer 
    3837 H6         -98.3999   192.3210   -75.0570 H6            1 Polymer 
    3838 H6         -99.6889   192.4531   -73.8305 H6            1 Polymer 
    3839 H6        -100.9751   193.7521   -75.7534 H6            1 Polymer 
    3840 H6         -99.4550   193.7018   -76.6591 H6            1 Polymer 
    3841 H6         -98.3825   195.0795   -74.7349 H6            1 Polymer 
    3842 H6         -99.9535   194.9086   -73.8640 H6            1 Polymer 
    3843 H6        -101.1161   195.9937   -75.8297 H6            1 Polymer 
    3844 H6         -99.5290   196.4585   -76.5140 H6            1 Polymer 
    3845 H6        -100.9354   198.1823   -75.1418 H6            1 Polymer 
    3846 H6        -100.6770   197.1564   -73.7089 H6            1 Polymer 
    3847 H6         -99.2630   199.0512   -73.5636 H6            1 Polymer 
    3848 H6         -98.1439   197.6867   -73.9185 H6            1 Polymer 
    3849 H6         -98.1121   198.4074   -76.3192 H6            1 Polymer 
    3850 H6         -99.3233   199.6783   -75.9985 H6            1 Polymer 
    3851 H6         -96.9698   200.5228   -76.2040 H6            1 Polymer 
    3852 H6         -96.5173   199.6518   -74.7088 H6            1 Polymer 
    3853 H6         -98.2384   201.0772   -73.4660 H6            1 Polymer 
    3854 H6         -98.7137   201.8302   -75.0371 H6            1 Polymer 
    3855 H6         -96.4122   202.7610   -75.3082 H6            1 Polymer 
    3856 H6         -95.9271   202.0210   -73.7329 H6            1 Polymer 
    3857 H6         -97.1913   203.3115   -73.7836 H6            1 Polymer 
    3858 H6        -101.5156   191.0089   -73.7137 H6            1 Polymer 
    3859 H6        -101.9694   189.8795   -75.0061 H6            1 Polymer 
    3860 H6        -103.0086   191.4997   -76.3303 H6            1 Polymer 
    3861 H6        -102.6900   192.8272   -75.1497 H6            1 Polymer 
    3862 H6        -104.2257   190.2935   -74.3095 H6            1 Polymer 
    3863 H6        -103.9730   191.8299   -73.3862 H6            1 Polymer 
    3864 H6        -105.3825   191.3345   -76.0246 H6            1 Polymer 
    3865 H6        -105.1211   193.0281   -75.3397 H6            1 Polymer 
    3866 H6        -106.9175   190.7975   -74.2090 H6            1 Polymer 
    3867 H6        -106.6866   192.4554   -73.5074 H6            1 Polymer 
    3868 H6        -107.4333   193.4720   -75.6984 H6            1 Polymer 
    3869 H6        -107.6653   191.8188   -76.3855 H6            1 Polymer 
    3870 H6        -109.4536   191.3652   -74.7108 H6            1 Polymer 
    3871 H6        -109.2238   193.0231   -74.0186 H6            1 Polymer 
    3872 H6        -109.8013   194.0312   -76.2478 H6            1 Polymer 
    3873 H6        -110.0307   192.3777   -76.9378 H6            1 Polymer 
    3874 H6        -111.1302   192.9742   -75.6381 H6            1 Polymer 
    3875 H6         -98.4787   189.8403   -77.8927 H6            1 Polymer 
    3876 H6         -98.1805   188.0982   -78.0535 H6            1 Polymer 
    3877 H6         -96.2882   189.4308   -78.1552 H6            1 Polymer 
    3878 H6         -95.9359   187.7206   -75.6279 H6            1 Polymer 
    3879 H6         -96.0884   187.1336   -77.3187 H6            1 Polymer 
    3880 H6         -93.8401   188.9315   -76.3271 H6            1 Polymer 
    3881 H6         -94.1774   188.5519   -78.0584 H6            1 Polymer 
    3882 H6         -93.3421   186.5952   -75.8491 H6            1 Polymer 
    3883 H6         -93.6621   186.1525   -77.5728 H6            1 Polymer 
    3884 H6         -91.6211   188.2764   -76.6281 H6            1 Polymer 
    3885 H6         -91.8947   187.7829   -78.3380 H6            1 Polymer 
    3886 H6         -90.8245   185.9930   -76.0873 H6            1 Polymer 
    3887 H6         -90.9956   185.4858   -77.8002 H6            1 Polymer 
    3888 H6         -89.3358   187.2677   -78.4841 H6            1 Polymer 
    3889 H6         -89.2888   187.8641   -76.7824 H6            1 Polymer 
    3890 H6         -88.3023   185.0749   -77.6843 H6            1 Polymer 
    3891 H6         -88.3767   185.6931   -76.0192 H6            1 Polymer 
    3892 H6         -86.6492   186.8511   -78.2542 H6            1 Polymer 
    3893 H6         -86.8943   187.6412   -76.6468 H6            1 Polymer 
    3894 H6         -86.0431   185.6684   -75.4453 H6            1 Polymer 
    3895 H6         -85.7712   184.7907   -77.0002 H6            1 Polymer 
    3896 H6         -84.1162   186.5321   -77.6896 H6            1 Polymer 
    3897 H6         -84.4131   187.4355   -76.1468 H6            1 Polymer 
    3898 H6         -83.6739   185.7920   -76.1035 H6            1 Polymer 
    3899 H6         -96.6011   190.5311   -75.2892 H6            1 Polymer 
    3900 H6         -97.1291   191.2804   -76.8388 H6            1 Polymer 
    3901 H6         -94.6531   191.1057   -77.5203 H6            1 Polymer 
    3902 H6         -94.3402   190.8113   -75.7447 H6            1 Polymer 
    3903 H6         -95.6134   192.9593   -75.2465 H6            1 Polymer 
    3904 H6         -95.7925   193.1740   -77.0085 H6            1 Polymer 
    3905 H6         -93.1334   193.0745   -75.4282 H6            1 Polymer 
    3906 H6         -93.2469   192.9687   -77.1742 H6            1 Polymer 
    3907 H6         -92.7588   195.2534   -76.6508 H6            1 Polymer 
    3908 H6         -94.3749   195.0739   -77.4146 H6            1 Polymer 
    3909 H6         -93.7944   195.4475   -74.4113 H6            1 Polymer 
    3910 H6         -95.4451   195.2763   -75.1078 H6            1 Polymer 
    3911 H6         -93.4437   197.5482   -75.7405 H6            1 Polymer 
    3912 H6         -94.8663   197.6322   -74.6379 H6            1 Polymer 
    3913 H6         -95.4492   198.6243   -76.8101 H6            1 Polymer 
    3914 H6         -94.9882   197.1468   -77.6932 H6            1 Polymer 
    3915 H6         -96.3842   197.0894   -76.5598 H6            1 Polymer 
    3916 C0        -103.1665   195.8192   -79.1785 C0            1 Polymer 
    3917 C1        -104.4336   195.6070   -79.9675 C1            1 Polymer 
    3918 C1        -105.3485   194.9157   -79.2923 C1            1 Polymer 
    3919 C1        -104.7658   194.3525   -78.0721 C1            1 Polymer 
    3920 C1        -103.2281   194.4771   -78.3884 C1            1 Polymer 
    3921 C1        -102.9109   193.2629   -79.1982 C1            1 Polymer 
    3922 C1        -103.8471   192.3071   -79.2017 C1            1 Polymer 
    3923 S2        -105.2351   192.6439   -78.1477 S2            1 Polymer 
    3924 C1        -103.6571   190.9641   -79.7866 C1            1 Polymer 
    3925 C1        -102.4829   190.6621   -80.5000 C1            1 Polymer 
    3926 N3        -102.1233   189.3725   -80.6869 N3            1 Polymer 
    3927 C1        -102.7959   188.3707   -80.0643 C1            1 Polymer 
    3928 C1        -104.1411   188.5685   -79.7658 C1            1 Polymer 
    3929 C1        -104.5645   189.9001   -79.5492 C1            1 Polymer 
    3930 N3        -105.8040   190.0218   -79.0021 N3            1 Polymer 
    3931 S2        -106.2923   188.4556   -78.8269 S2            1 Polymer 
    3932 N3        -104.9926   187.5910   -79.3558 N3            1 Polymer 
    3933 S2        -106.6420   194.4782   -80.2764 S2            1 Polymer 
    3934 C1        -105.9970   195.2321   -81.6574 C1            1 Polymer 
    3935 C1        -104.7598   195.8015   -81.3068 C1            1 Polymer 
    3936 C0        -103.2872   196.9461   -78.0603 C0            1 Polymer 
    3937 C0        -104.0959   198.2400   -78.4005 C0            1 Polymer 
    3938 C0        -103.3732   199.5138   -77.8288 C0            1 Polymer 
    3939 C0        -103.7618   200.8239   -78.5467 C0            1 Polymer 
    3940 C0        -103.3620   202.1072   -77.7753 C0            1 Polymer 
    3941 C0        -103.9437   203.3572   -78.4809 C0            1 Polymer 
    3942 C0        -104.0908   204.6037   -77.5773 C0            1 Polymer 
    3943 C0        -102.8347   205.4328   -77.2516 C0            1 Polymer 
    3944 C0        -102.3429   206.2274   -78.4721 C0            1 Polymer 
    3945 C0        -101.2293   207.2463   -78.1540 C0            1 Polymer 
    3946 C0        -101.7442   208.4769   -77.3882 C0            1 Polymer 
    3947 C0        -100.6499   209.5336   -77.2353 C0            1 Polymer 
    3948 C0        -105.5100   198.0315   -77.7262 C0            1 Polymer 
    3949 C0        -106.7094   198.8570   -78.1709 C0            1 Polymer 
    3950 C0        -107.9634   198.5042   -77.3222 C0            1 Polymer 
    3951 C0        -109.1810   199.0640   -78.0375 C0            1 Polymer 
    3952 C0        -110.5531   198.9605   -77.3740 C0            1 Polymer 
    3953 C0        -111.5799   199.5244   -78.3817 C0            1 Polymer 
    3954 C0        -113.0204   199.5042   -77.8764 C0            1 Polymer 
    3955 C0        -113.9568   200.0783   -78.9435 C0            1 Polymer 
    3956 C0        -102.0171   196.0601   -80.2391 C0            1 Polymer 
    3957 C0        -100.4905   196.3439   -80.0237 C0            1 Polymer 
    3958 C0         -99.6355   195.1011   -79.6089 C0            1 Polymer 
    3959 C0         -98.1325   195.3023   -79.9405 C0            1 Polymer 
    3960 C0         -97.1985   194.0830   -79.8272 C0            1 Polymer 
    3961 C0         -95.7675   194.5415   -80.2191 C0            1 Polymer 
    3962 C0         -94.6722   193.4729   -80.0638 C0            1 Polymer 
    3963 C0         -93.2787   194.0847   -80.3483 C0            1 Polymer 
    3964 C0         -92.1298   193.1241   -79.9927 C0            1 Polymer 
    3965 C0         -90.7517   193.7982   -80.1033 C0            1 Polymer 
    3966 C0         -89.6697   192.9277   -79.4418 C0            1 Polymer 
    3967 C0         -88.2883   193.5702   -79.5350 C0            1 Polymer 
    3968 C0        -100.2792   197.6945   -79.2769 C0            1 Polymer 
    3969 C0         -98.9101   198.3512   -79.4010 C0            1 Polymer 
    3970 C0         -99.0087   199.8545   -79.1359 C0            1 Polymer 
    3971 C0         -97.6166   200.4826   -79.2099 C0            1 Polymer 
    3972 C0         -97.6597   201.9961   -79.4070 C0            1 Polymer 
    3973 C0         -98.2802   202.7500   -78.2283 C0            1 Polymer 
    3974 C0         -98.3284   204.2640   -78.4755 C0            1 Polymer 
    3975 C0         -99.2363   204.6358   -79.6491 C0            1 Polymer 
    3976 H4        -101.9528   193.1763   -79.6750 H4            1 Polymer 
    3977 H5        -101.7792   191.4136   -80.8146 H5            1 Polymer 
    3978 H4        -104.1248   196.3317   -82.0010 H4            1 Polymer 
    3979 H6        -103.7114   196.5389   -77.1132 H6            1 Polymer 
    3980 H6        -102.3070   197.1553   -77.6541 H6            1 Polymer 
    3981 H6        -104.1241   198.3110   -79.5090 H6            1 Polymer 
    3982 H6        -102.2729   199.4376   -77.9578 H6            1 Polymer 
    3983 H6        -103.5661   199.5696   -76.7355 H6            1 Polymer 
    3984 H6        -104.8476   200.8640   -78.6662 H6            1 Polymer 
    3985 H6        -103.3230   200.8150   -79.5641 H6            1 Polymer 
    3986 H6        -102.2625   202.1978   -77.6382 H6            1 Polymer 
    3987 H6        -103.8373   202.0257   -76.7738 H6            1 Polymer 
    3988 H6        -104.9934   203.1064   -78.7475 H6            1 Polymer 
    3989 H6        -103.4029   203.5695   -79.4253 H6            1 Polymer 
    3990 H6        -104.8127   205.2978   -78.0638 H6            1 Polymer 
    3991 H6        -104.5629   204.2745   -76.6272 H6            1 Polymer 
    3992 H6        -103.1454   206.1675   -76.4808 H6            1 Polymer 
    3993 H6        -102.0283   204.7986   -76.8253 H6            1 Polymer 
    3994 H6        -101.9815   205.5099   -79.2278 H6            1 Polymer 
    3995 H6        -103.1910   206.7855   -78.9179 H6            1 Polymer 
    3996 H6        -100.8351   207.6250   -79.1134 H6            1 Polymer 
    3997 H6        -100.3908   206.7557   -77.6159 H6            1 Polymer 
    3998 H6        -102.1108   208.1891   -76.3826 H6            1 Polymer 
    3999 H6        -102.5829   208.9368   -77.9573 H6            1 Polymer 
    4000 H6        -100.2818   209.8638   -78.2306 H6            1 Polymer 
    4001 H6         -99.7969   209.1289   -76.6526 H6            1 Polymer 
    4002 H6        -101.0596   210.4209   -76.7077 H6            1 Polymer 
    4003 H6        -105.3910   198.1237   -76.6232 H6            1 Polymer 
    4004 H6        -105.8409   196.9948   -77.9169 H6            1 Polymer 
    4005 H6        -106.8747   198.6164   -79.2447 H6            1 Polymer 
    4006 H6        -106.5630   199.9419   -78.0596 H6            1 Polymer 
    4007 H6        -108.0984   197.4033   -77.2336 H6            1 Polymer 
    4008 H6        -107.8526   198.9373   -76.3043 H6            1 Polymer 
    4009 H6        -109.2477   198.4482   -78.9515 H6            1 Polymer 
    4010 H6        -108.9945   200.1396   -78.2581 H6            1 Polymer 
    4011 H6        -110.7888   197.8989   -77.1443 H6            1 Polymer 
    4012 H6        -110.5663   199.5550   -76.4355 H6            1 Polymer 
    4013 H6        -111.3083   200.5767   -78.6262 H6            1 Polymer 
    4014 H6        -111.5324   198.9248   -79.3192 H6            1 Polymer 
    4015 H6        -113.3238   198.4597   -77.6505 H6            1 Polymer 
    4016 H6        -113.1021   200.1166   -76.9533 H6            1 Polymer 
    4017 H6        -113.6776   201.1281   -79.1816 H6            1 Polymer 
    4018 H6        -113.8992   199.4754   -79.8761 H6            1 Polymer 
    4019 H6        -115.0040   200.0647   -78.5776 H6            1 Polymer 
    4020 H6        -102.3574   196.9583   -80.7995 H6            1 Polymer 
    4021 H6        -102.0606   195.2166   -80.9648 H6            1 Polymer 
    4022 H6        -100.1686   196.5489   -81.0714 H6            1 Polymer 
    4023 H6         -99.8042   194.8340   -78.5499 H6            1 Polymer 
    4024 H6         -99.9651   194.2492   -80.2407 H6            1 Polymer 
    4025 H6         -97.7127   196.0470   -79.2594 H6            1 Polymer 
    4026 H6         -98.0569   195.6664   -80.9887 H6            1 Polymer 
    4027 H6         -97.2123   193.7119   -78.7812 H6            1 Polymer 
    4028 H6         -97.5341   193.2683   -80.5041 H6            1 Polymer 
    4029 H6         -95.4958   195.3963   -79.5615 H6            1 Polymer 
    4030 H6         -95.7688   194.9022   -81.2712 H6            1 Polymer 
    4031 H6         -94.6944   193.1143   -79.0207 H6            1 Polymer 
    4032 H6         -94.8623   192.6078   -80.7338 H6            1 Polymer 
    4033 H6         -93.2046   194.3953   -81.4129 H6            1 Polymer 
    4034 H6         -93.1634   194.9895   -79.7104 H6            1 Polymer 
    4035 H6         -92.1663   192.2045   -80.6139 H6            1 Polymer 
    4036 H6         -92.2488   192.8185   -78.9482 H6            1 Polymer 
    4037 H6         -90.5150   193.9864   -81.1727 H6            1 Polymer 
    4038 H6         -90.7693   194.7723   -79.5647 H6            1 Polymer 
    4039 H6         -89.9182   192.7993   -78.3636 H6            1 Polymer 
    4040 H6         -89.6371   191.9255   -79.9190 H6            1 Polymer 
    4041 H6         -87.9833   193.6725   -80.5972 H6            1 Polymer 
    4042 H6         -88.2893   194.5718   -79.0539 H6            1 Polymer 
    4043 H6         -87.5464   192.9300   -79.0108 H6            1 Polymer 
    4044 H6        -100.4707   197.6432   -78.2016 H6            1 Polymer 
    4045 H6        -101.0022   198.3965   -79.7480 H6            1 Polymer 
    4046 H6         -98.5271   198.2184   -80.4365 H6            1 Polymer 
    4047 H6         -98.2113   197.9218   -78.6616 H6            1 Polymer 
    4048 H6         -99.4795   200.0723   -78.1598 H6            1 Polymer 
    4049 H6         -99.6602   200.2879   -79.9215 H6            1 Polymer 
    4050 H6         -97.0003   200.1838   -78.3439 H6            1 Polymer 
    4051 H6         -97.1143   200.0763   -80.0893 H6            1 Polymer 
    4052 H6         -96.6224   202.3617   -79.5661 H6            1 Polymer 
    4053 H6         -98.2375   202.1843   -80.3322 H6            1 Polymer 
    4054 H6         -97.6633   202.5591   -77.3283 H6            1 Polymer 
    4055 H6         -99.3123   202.3904   -78.0291 H6            1 Polymer 
    4056 H6         -97.3051   204.6584   -78.6571 H6            1 Polymer 
    4057 H6         -98.7306   204.7453   -77.5586 H6            1 Polymer 
    4058 H6         -99.3055   205.7388   -79.7319 H6            1 Polymer 
    4059 H6         -98.8445   204.2601   -80.6141 H6            1 Polymer 
    4060 H6        -100.2442   204.2059   -79.4852 H6            1 Polymer 
    4061 C0        -107.0171   202.9270   -82.1064 C0            1 Polymer 
    4062 C1        -108.2743   202.7103   -82.8953 C1            1 Polymer 
    4063 C1        -109.1856   202.0137   -82.2277 C1            1 Polymer 
    4064 C1        -108.6333   201.4774   -80.9883 C1            1 Polymer 
    4065 C1        -107.0903   201.6040   -81.2795 C1            1 Polymer 
    4066 C1        -106.7600   200.3756   -82.0664 C1            1 Polymer 
    4067 C1        -107.7019   199.4245   -82.0846 C1            1 Polymer 
    4068 S2        -109.1090   199.7742   -81.0651 S2            1 Polymer 
    4069 C1        -107.5165   198.0815   -82.6691 C1            1 Polymer 
    4070 C1        -106.3465   197.7769   -83.3880 C1            1 Polymer 
    4071 N3        -105.9978   196.4867   -83.5893 N3            1 Polymer 
    4072 C1        -106.6728   195.4851   -82.9684 C1            1 Polymer 
    4073 C1        -108.0153   195.6883   -82.6646 C1            1 Polymer 
    4074 C1        -108.4296   197.0212   -82.4363 C1            1 Polymer 
    4075 N3        -109.6669   197.1444   -81.8828 N3            1 Polymer 
    4076 S2        -110.1634   195.5797   -81.7173 S2            1 Polymer 
    4077 N3        -108.8712   194.7123   -82.2588 N3            1 Polymer 
    4078 S2        -110.5454   201.6905   -83.1591 S2            1 Polymer 
    4079 C1        -109.9114   202.4998   -84.5131 C1            1 Polymer 
    4080 C1        -108.6369   202.9894   -84.1996 C1            1 Polymer 
    4081 C0        -107.1701   204.1015   -81.0397 C0            1 Polymer 
    4082 C0        -107.9303   205.3967   -81.4909 C0            1 Polymer 
    4083 C0        -107.2393   206.6893   -80.9260 C0            1 Polymer 
    4084 C0        -107.6057   207.9712   -81.7097 C0            1 Polymer 
    4085 C0        -107.2703   209.2870   -80.9677 C0            1 Polymer 
    4086 C0        -107.9318   210.4833   -81.6962 C0            1 Polymer 
    4087 C0        -108.0486   211.7689   -80.8514 C0            1 Polymer 
    4088 C0        -106.7876   212.6278   -80.6738 C0            1 Polymer 
    4089 C0        -106.3649   213.3067   -81.9908 C0            1 Polymer 
    4090 C0        -105.2559   214.3608   -81.8079 C0            1 Polymer 
    4091 C0        -105.7444   215.6342   -81.0935 C0            1 Polymer 
    4092 C0        -104.6416   216.6887   -81.0161 C0            1 Polymer 
    4093 C0        -109.3973   205.2317   -80.9309 C0            1 Polymer 
    4094 C0        -110.5458   206.0834   -81.4666 C0            1 Polymer 
    4095 C0        -111.8579   205.7135   -80.7423 C0            1 Polymer 
    4096 C0        -113.0279   206.3711   -81.4599 C0            1 Polymer 
    4097 C0        -114.3823   206.1658   -80.7763 C0            1 Polymer 
    4098 C0        -115.4758   206.7802   -81.6628 C0            1 Polymer 
    4099 C0        -116.8712   206.6620   -81.0507 C0            1 Polymer 
    4100 C0        -117.9120   207.2665   -81.9930 C0            1 Polymer 
    4101 C0        -105.8636   203.1389   -83.1663 C0            1 Polymer 
    4102 C0        -104.3446   203.4348   -82.9406 C0            1 Polymer 
    4103 C0        -103.4868   202.2002   -82.5148 C0            1 Polymer 
    4104 C0        -101.9861   202.4098   -82.8444 C0            1 Polymer 
    4105 C0        -101.0513   201.1929   -82.7329 C0            1 Polymer 
    4106 C0         -99.6240   201.6547   -83.1293 C0            1 Polymer 
    4107 C0         -98.5289   200.5874   -82.9762 C0            1 Polymer 
    4108 C0         -97.1376   201.1999   -83.2656 C0            1 Polymer 
    4109 C0         -95.9895   200.2406   -82.9077 C0            1 Polymer 
    4110 C0         -94.6112   200.9114   -83.0263 C0            1 Polymer 
    4111 C0         -93.5302   200.0408   -82.3637 C0            1 Polymer 
    4112 C0         -92.1474   200.6781   -82.4646 C0            1 Polymer 
    4113 C0        -104.1530   204.7868   -82.1944 C0            1 Polymer 
    4114 C0        -102.7912   205.4538   -82.3084 C0            1 Polymer 
    4115 C0        -102.9003   206.9574   -82.0450 C0            1 Polymer 
    4116 C0        -101.5057   207.5785   -82.1098 C0            1 Polymer 
    4117 C0        -101.5309   209.0884   -82.3257 C0            1 Polymer 
    4118 C0        -102.1498   209.8683   -81.1634 C0            1 Polymer 
    4119 C0        -102.1399   211.3806   -81.4291 C0            1 Polymer 
    4120 C0        -103.0189   211.7749   -82.6169 C0            1 Polymer 
    4121 H4        -105.7942   200.2797   -82.5262 H4            1 Polymer 
    4122 H5        -105.6417   198.5289   -83.7015 H5            1 Polymer 
    4123 H4        -108.0262   203.5757   -84.8703 H4            1 Polymer 
    4124 H6        -107.6649   203.7411   -80.1084 H6            1 Polymer 
    4125 H6        -106.2090   204.3142   -80.5890 H6            1 Polymer 
    4126 H6        -107.8744   205.4297   -82.5993 H6            1 Polymer 
    4127 H6        -106.1339   206.6136   -80.9931 H6            1 Polymer 
    4128 H6        -107.4935   206.7785   -79.8472 H6            1 Polymer 
    4129 H6        -108.6800   207.9870   -81.8777 H6            1 Polymer 
    4130 H6        -107.1341   207.9456   -82.7145 H6            1 Polymer 
    4131 H6        -106.1750   209.4312   -80.8435 H6            1 Polymer 
    4132 H6        -107.7329   209.2132   -79.9591 H6            1 Polymer 
    4133 H6        -108.9896   210.1941   -81.8820 H6            1 Polymer 
    4134 H6        -107.4635   210.6674   -82.6839 H6            1 Polymer 
    4135 H6        -108.8130   212.4244   -81.3256 H6            1 Polymer 
    4136 H6        -108.4458   211.4891   -79.8516 H6            1 Polymer 
    4137 H6        -107.0668   213.4198   -79.9501 H6            1 Polymer 
    4138 H6        -105.9523   212.0387   -80.2371 H6            1 Polymer 
    4139 H6        -106.0124   212.5237   -82.6908 H6            1 Polymer 
    4140 H6        -107.2365   213.8085   -82.4650 H6            1 Polymer 
    4141 H6        -104.9112   214.6552   -82.8216 H6            1 Polymer 
    4142 H6        -104.3982   213.9221   -81.2568 H6            1 Polymer 
    4143 H6        -106.0735   215.4037   -80.0603 H6            1 Polymer 
    4144 H6        -106.6017   216.0663   -81.6551 H6            1 Polymer 
    4145 H6        -104.3015   216.9756   -82.0329 H6            1 Polymer 
    4146 H6        -103.7752   216.3024   -80.4392 H6            1 Polymer 
    4147 H6        -105.0308   217.5975   -80.5094 H6            1 Polymer 
    4148 H6        -109.3618   205.3308   -79.8219 H6            1 Polymer 
    4149 H6        -109.7321   204.2027   -81.1380 H6            1 Polymer 
    4150 H6        -110.6310   205.8831   -82.5577 H6            1 Polymer 
    4151 H6        -110.4136   207.1601   -81.2874 H6            1 Polymer 
    4152 H6        -112.0231   204.6132   -80.7521 H6            1 Polymer 
    4153 H6        -111.7998   206.0557   -79.6844 H6            1 Polymer 
    4154 H6        -113.0676   205.9039   -82.4628 H6            1 Polymer 
    4155 H6        -112.8416   207.4643   -81.5540 H6            1 Polymer 
    4156 H6        -114.5819   205.0803   -80.6402 H6            1 Polymer 
    4157 H6        -114.3728   206.6605   -79.7801 H6            1 Polymer 
    4158 H6        -115.2494   207.8570   -81.8308 H6            1 Polymer 
    4159 H6        -115.4729   206.2561   -82.6442 H6            1 Polymer 
    4160 H6        -117.1179   205.5924   -80.8773 H6            1 Polymer 
    4161 H6        -116.9009   207.2023   -80.0798 H6            1 Polymer 
    4162 H6        -117.6908   208.3403   -82.1767 H6            1 Polymer 
    4163 H6        -117.9093   206.7282   -82.9656 H6            1 Polymer 
    4164 H6        -118.9229   207.1828   -81.5435 H6            1 Polymer 
    4165 H6        -106.1942   204.0260   -83.7480 H6            1 Polymer 
    4166 H6        -105.9037   202.2821   -83.8761 H6            1 Polymer 
    4167 H6        -104.0159   203.6373   -83.9867 H6            1 Polymer 
    4168 H6        -103.6582   201.9373   -81.4554 H6            1 Polymer 
    4169 H6        -103.8095   201.3435   -83.1439 H6            1 Polymer 
    4170 H6        -101.5693   203.1572   -82.1637 H6            1 Polymer 
    4171 H6        -101.9110   202.7734   -83.8929 H6            1 Polymer 
    4172 H6        -101.0630   200.8219   -81.6871 H6            1 Polymer 
    4173 H6        -101.3871   200.3779   -83.4093 H6            1 Polymer 
    4174 H6         -99.3518   202.5105   -82.4730 H6            1 Polymer 
    4175 H6         -99.6290   202.0146   -84.1818 H6            1 Polymer 
    4176 H6         -98.5489   200.2304   -81.9326 H6            1 Polymer 
    4177 H6         -98.7206   199.7213   -83.6446 H6            1 Polymer 
    4178 H6         -97.0661   201.5062   -84.3317 H6            1 Polymer 
    4179 H6         -97.0212   202.1073   -82.6315 H6            1 Polymer 
    4180 H6         -96.0295   199.3172   -83.5232 H6            1 Polymer 
    4181 H6         -96.1062   199.9427   -81.8604 H6            1 Polymer 
    4182 H6         -94.3777   201.0933   -84.0975 H6            1 Polymer 
    4183 H6         -94.6250   201.8883   -82.4928 H6            1 Polymer 
    4184 H6         -93.7760   199.9185   -81.2843 H6            1 Polymer 
    4185 H6         -93.5027   199.0362   -82.8362 H6            1 Polymer 
    4186 H6         -91.8459   200.7743   -83.5284 H6            1 Polymer 
    4187 H6         -92.1438   201.6820   -81.9882 H6            1 Polymer 
    4188 H6         -91.4062   200.0378   -81.9398 H6            1 Polymer 
    4189 H6        -104.3507   204.7299   -81.1206 H6            1 Polymer 
    4190 H6        -104.8769   205.4824   -82.6731 H6            1 Polymer 
    4191 H6        -102.4020   205.3237   -83.3423 H6            1 Polymer 
    4192 H6        -102.0941   205.0270   -81.5658 H6            1 Polymer 
    4193 H6        -103.3769   207.1798   -81.0728 H6            1 Polymer 
    4194 H6        -103.5504   207.3883   -82.8351 H6            1 Polymer 
    4195 H6        -100.8993   207.2836   -81.2367 H6            1 Polymer 
    4196 H6        -100.9959   207.1557   -82.9757 H6            1 Polymer 
    4197 H6        -100.4863   209.4359   -82.4788 H6            1 Polymer 
    4198 H6        -102.0967   209.2733   -83.2584 H6            1 Polymer 
    4199 H6        -101.5509   209.6689   -80.2528 H6            1 Polymer 
    4200 H6        -103.1945   209.5388   -80.9770 H6            1 Polymer 
    4201 H6        -101.0989   211.7275   -81.6077 H6            1 Polymer 
    4202 H6        -102.5283   211.8949   -80.5240 H6            1 Polymer 
    4203 H6        -103.0022   212.8749   -82.7415 H6            1 Polymer 
    4204 H6        -102.6557   211.3447   -83.5694 H6            1 Polymer 
    4205 H6        -104.0572   211.4305   -82.4369 H6            1 Polymer 
    4206 C0        -111.1354   210.4315   -85.3860 C0            1 Polymer 
    4207 C1        -112.4497   210.4895   -86.1383 C1            1 Polymer 
    4208 C1        -113.4125   209.7762   -85.5483 C1            1 Polymer 
    4209 C1        -112.9574   209.0688   -84.3600 C1            1 Polymer 
    4210 C1        -111.4040   209.1373   -84.5425 C1            1 Polymer 
    4211 C1        -111.0472   207.8790   -85.2394 C1            1 Polymer 
    4212 C1        -112.0071   206.9562   -85.3701 C1            1 Polymer 
    4213 S2        -113.5488   207.3935   -84.6013 S2            1 Polymer 
    4214 C1        -111.6996   205.5716   -85.7972 C1            1 Polymer 
    4215 C1        -110.4423   205.2783   -86.3528 C1            1 Polymer 
    4216 N3        -109.9596   204.0275   -86.2805 N3            1 Polymer 
    4217 C1        -110.6456   203.0314   -85.6716 C1            1 Polymer 
    4218 C1        -112.0113   203.1762   -85.4365 C1            1 Polymer 
    4219 C1        -112.5461   204.4857   -85.4703 C1            1 Polymer 
    4220 N3        -113.8194   204.5946   -85.0060 N3            1 Polymer 
    4221 S2        -114.2039   203.0439   -84.5974 S2            1 Polymer 
    4222 N3        -112.8178   202.2140   -84.9143 N3            1 Polymer 
    4223 S2        -114.8843   209.9157   -86.3418 S2            1 Polymer 
    4224 C1        -114.2455   210.9303   -87.5361 C1            1 Polymer 
    4225 C1        -112.8931   211.1681   -87.2797 C1            1 Polymer 
    4226 C0        -111.0227   211.6199   -84.3417 C0            1 Polymer 
    4227 C0        -111.6667   212.9710   -84.7838 C0            1 Polymer 
    4228 C0        -110.9030   214.1883   -84.1753 C0            1 Polymer 
    4229 C0        -111.3194   215.4893   -84.8714 C0            1 Polymer 
    4230 C0        -110.9448   216.7893   -84.1466 C0            1 Polymer 
    4231 C0        -111.7177   217.9517   -84.8164 C0            1 Polymer 
    4232 C0        -111.8288   219.2172   -83.9586 C0            1 Polymer 
    4233 C0        -110.5844   220.1009   -83.8527 C0            1 Polymer 
    4234 C0        -110.2364   220.7606   -85.2012 C0            1 Polymer 
    4235 C0        -109.1919   221.8833   -85.0800 C0            1 Polymer 
    4236 C0        -109.7139   223.1133   -84.3177 C0            1 Polymer 
    4237 C0        -108.6806   224.2350   -84.3137 C0            1 Polymer 
    4238 C0        -113.1741   212.9293   -84.2958 C0            1 Polymer 
    4239 C0        -114.2902   213.6309   -85.0989 C0            1 Polymer 
    4240 C0        -115.6479   213.2907   -84.4609 C0            1 Polymer 
    4241 C0        -116.8176   213.8935   -85.2401 C0            1 Polymer 
    4242 C0        -118.1378   213.5973   -84.5187 C0            1 Polymer 
    4243 C0        -119.3305   214.1871   -85.2755 C0            1 Polymer 
    4244 C0        -120.6337   213.9388   -84.5073 C0            1 Polymer 
    4245 C0        -121.8308   214.5199   -85.2520 C0            1 Polymer 
    4246 C0        -109.9666   210.3789   -86.4679 C0            1 Polymer 
    4247 C0        -108.4033   210.5583   -86.2688 C0            1 Polymer 
    4248 C0        -107.5848   209.3459   -85.6900 C0            1 Polymer 
    4249 C0        -106.0523   209.5664   -85.8568 C0            1 Polymer 
    4250 C0        -105.0844   208.3715   -85.6826 C0            1 Polymer 
    4251 C0        -103.6412   208.8545   -86.0246 C0            1 Polymer 
    4252 C0        -102.5286   207.7943   -85.8753 C0            1 Polymer 
    4253 C0        -101.1318   208.4032   -86.1750 C0            1 Polymer 
    4254 C0         -99.9815   207.4342   -85.8319 C0            1 Polymer 
    4255 C0         -98.5889   208.0789   -85.9617 C0            1 Polymer 
    4256 C0         -97.5191   207.1888   -85.2999 C0            1 Polymer 
    4257 C0         -96.1209   207.7933   -85.4063 C0            1 Polymer 
    4258 C0        -108.0696   211.9697   -85.6939 C0            1 Polymer 
    4259 C0        -106.8085   212.6500   -86.2558 C0            1 Polymer 
    4260 C0        -106.8176   214.1395   -85.9100 C0            1 Polymer 
    4261 C0        -105.5588   214.8249   -86.4489 C0            1 Polymer 
    4262 C0        -105.6325   216.3498   -86.3384 C0            1 Polymer 
    4263 C0        -105.7534   216.8549   -84.8922 C0            1 Polymer 
    4264 C0        -105.7192   218.3851   -84.8072 C0            1 Polymer 
    4265 C0        -106.8925   219.0506   -85.5218 C0            1 Polymer 
    4266 H4        -110.0177   207.7268   -85.5084 H4            1 Polymer 
    4267 H5        -109.7528   206.0340   -86.6921 H5            1 Polymer 
    4268 H4        -112.2781   211.8080   -87.8940 H4            1 Polymer 
    4269 H6        -111.4837   211.3528   -83.3614 H6            1 Polymer 
    4270 H6        -109.9816   211.7092   -84.0315 H6            1 Polymer 
    4271 H6        -111.5492   213.0201   -85.8849 H6            1 Polymer 
    4272 H6        -109.8047   214.0852   -84.3074 H6            1 Polymer 
    4273 H6        -111.1088   214.2255   -83.0830 H6            1 Polymer 
    4274 H6        -112.4000   215.4938   -84.8760 H6            1 Polymer 
    4275 H6        -110.9678   215.4951   -85.9268 H6            1 Polymer 
    4276 H6        -109.8479   216.9654   -84.1271 H6            1 Polymer 
    4277 H6        -111.3099   216.6904   -83.1006 H6            1 Polymer 
    4278 H6        -112.7765   217.6264   -84.9232 H6            1 Polymer 
    4279 H6        -111.3408   218.1564   -85.8411 H6            1 Polymer 
    4280 H6        -112.6382   219.8501   -84.3864 H6            1 Polymer 
    4281 H6        -112.1606   218.9182   -82.9405 H6            1 Polymer 
    4282 H6        -110.8622   220.8897   -83.1277 H6            1 Polymer 
    4283 H6        -109.7165   219.5419   -83.4418 H6            1 Polymer 
    4284 H6        -109.8519   219.9781   -85.8893 H6            1 Polymer 
    4285 H6        -111.1477   221.2013   -85.6627 H6            1 Polymer 
    4286 H6        -108.9296   222.2049   -86.1123 H6            1 Polymer 
    4287 H6        -108.2808   221.5046   -84.5794 H6            1 Polymer 
    4288 H6        -109.9399   222.8560   -83.2635 H6            1 Polymer 
    4289 H6        -110.6416   223.4876   -84.8031 H6            1 Polymer 
    4290 H6        -108.4525   224.5525   -85.3534 H6            1 Polymer 
    4291 H6        -107.7453   223.8958   -83.8200 H6            1 Polymer 
    4292 H6        -109.0828   225.1072   -83.7562 H6            1 Polymer 
    4293 H6        -113.2193   213.2141   -83.2215 H6            1 Polymer 
    4294 H6        -113.5085   211.8852   -84.2889 H6            1 Polymer 
    4295 H6        -114.2715   213.2683   -86.1448 H6            1 Polymer 
    4296 H6        -114.2246   214.7263   -85.1149 H6            1 Polymer 
    4297 H6        -115.7853   212.1869   -84.4195 H6            1 Polymer 
    4298 H6        -115.6570   213.6857   -83.4205 H6            1 Polymer 
    4299 H6        -116.8384   213.4610   -86.2649 H6            1 Polymer 
    4300 H6        -116.6834   214.9947   -85.3148 H6            1 Polymer 
    4301 H6        -118.2732   212.4970   -84.4208 H6            1 Polymer 
    4302 H6        -118.0964   214.0433   -83.4999 H6            1 Polymer 
    4303 H6        -119.1837   215.2830   -85.3969 H6            1 Polymer 
    4304 H6        -119.3933   213.7188   -86.2827 H6            1 Polymer 
    4305 H6        -120.7892   212.8462   -84.3714 H6            1 Polymer 
    4306 H6        -120.5697   214.4169   -83.5050 H6            1 Polymer 
    4307 H6        -121.7064   215.6156   -85.3863 H6            1 Polymer 
    4308 H6        -121.9349   214.0381   -86.2473 H6            1 Polymer 
    4309 H6        -122.7566   214.3357   -84.6672 H6            1 Polymer 
    4310 H6        -110.2019   211.2260   -87.1456 H6            1 Polymer 
    4311 H6        -110.1178   209.4763   -87.0989 H6            1 Polymer 
    4312 H6        -108.0808   210.6047   -87.3345 H6            1 Polymer 
    4313 H6        -107.8425   209.1435   -84.6307 H6            1 Polymer 
    4314 H6        -107.8590   208.4538   -86.2923 H6            1 Polymer 
    4315 H6        -105.7390   210.3177   -85.1093 H6            1 Polymer 
    4316 H6        -105.8877   209.9385   -86.8918 H6            1 Polymer 
    4317 H6        -105.1347   207.9968   -84.6376 H6            1 Polymer 
    4318 H6        -105.3655   207.5503   -86.3758 H6            1 Polymer 
    4319 H6        -103.3954   209.7059   -85.3532 H6            1 Polymer 
    4320 H6        -103.6226   209.2248   -87.0732 H6            1 Polymer 
    4321 H6        -102.5396   207.4299   -84.8347 H6            1 Polymer 
    4322 H6        -102.7162   206.9296   -86.5465 H6            1 Polymer 
    4323 H6        -101.0670   208.7082   -87.2417 H6            1 Polymer 
    4324 H6        -101.0044   209.3098   -85.5429 H6            1 Polymer 
    4325 H6        -100.0381   206.5083   -86.4421 H6            1 Polymer 
    4326 H6        -100.0894   207.1426   -84.7855 H6            1 Polymer 
    4327 H6         -98.3563   208.2503   -87.0348 H6            1 Polymer 
    4328 H6         -98.5804   209.0580   -85.4329 H6            1 Polymer 
    4329 H6         -97.7615   207.0752   -84.2187 H6            1 Polymer 
    4330 H6         -97.5131   206.1814   -85.7674 H6            1 Polymer 
    4331 H6         -95.8174   207.8776   -86.4705 H6            1 Polymer 
    4332 H6         -96.0911   208.7982   -84.9333 H6            1 Polymer 
    4333 H6         -95.3933   207.1377   -84.8802 H6            1 Polymer 
    4334 H6        -108.0178   211.9747   -84.5891 H6            1 Polymer 
    4335 H6        -108.8946   212.6367   -86.0220 H6            1 Polymer 
    4336 H6        -106.8048   212.5599   -87.3637 H6            1 Polymer 
    4337 H6        -105.8774   212.2187   -85.8619 H6            1 Polymer 
    4338 H6        -106.8770   214.2681   -84.8098 H6            1 Polymer 
    4339 H6        -107.7162   214.6028   -86.3755 H6            1 Polymer 
    4340 H6        -104.6631   214.4378   -85.9149 H6            1 Polymer 
    4341 H6        -105.4528   214.5851   -87.5296 H6            1 Polymer 
    4342 H6        -104.7064   216.7679   -86.7886 H6            1 Polymer 
    4343 H6        -106.5008   216.6905   -86.9395 H6            1 Polymer 
    4344 H6        -104.8909   216.4653   -84.3144 H6            1 Polymer 
    4345 H6        -106.6924   216.4913   -84.4223 H6            1 Polymer 
    4346 H6        -104.7671   218.7600   -85.2402 H6            1 Polymer 
    4347 H6        -105.7541   218.6786   -83.7354 H6            1 Polymer 
    4348 H6        -106.7887   220.1452   -85.4146 H6            1 Polymer 
    4349 H6        -106.8939   218.8335   -86.6081 H6            1 Polymer 
    4350 H6        -107.8541   218.7166   -85.0769 H6            1 Polymer 
    4351 H5           2.3410    -5.2384    -0.4703 H5            1 Polymer 
    4352 H5        -114.8073   211.3477   -88.3583 H5            1 Polymer 
@<TRIPOS>BOND
       1        2        1 1
       2       21        1 1
       3       41        1 1
       4        5        1 1
       5        3        2 1
       6       20        2 1
       7        4        3 1
       8       18        3 1
       9        5        4 1
      10        8        4 1
      11        6        5 1
      12        7        6 1
      13       61        6 1
      14        8        7 1
      15        9        7 1
      16       10        9 1
      17       14        9 1
      18       11       10 1
      19       62       10 1
      20       12       11 1
      21       13       12 1
      22     4351       12 1
      23       14       13 1
      24       17       13 1
      25       15       14 1
      26       16       15 1
      27       17       16 1
      28       19       18 1
      29       20       19 1
      30      157       19 1
      31       63       20 1
      32       22       21 1
      33       64       21 1
      34       65       21 1
      35       23       22 1
      36       33       22 1
      37       66       22 1
      38       24       23 1
      39       67       23 1
      40       68       23 1
      41       25       24 1
      42       69       24 1
      43       70       24 1
      44       26       25 1
      45       71       25 1
      46       72       25 1
      47       27       26 1
      48       73       26 1
      49       74       26 1
      50       28       27 1
      51       75       27 1
      52       76       27 1
      53       29       28 1
      54       77       28 1
      55       78       28 1
      56       30       29 1
      57       79       29 1
      58       80       29 1
      59       31       30 1
      60       81       30 1
      61       82       30 1
      62       32       31 1
      63       83       31 1
      64       84       31 1
      65       85       32 1
      66       86       32 1
      67       87       32 1
      68       34       33 1
      69       88       33 1
      70       89       33 1
      71       35       34 1
      72       90       34 1
      73       91       34 1
      74       36       35 1
      75       92       35 1
      76       93       35 1
      77       37       36 1
      78       94       36 1
      79       95       36 1
      80       38       37 1
      81       96       37 1
      82       97       37 1
      83       39       38 1
      84       98       38 1
      85       99       38 1
      86       40       39 1
      87      100       39 1
      88      101       39 1
      89      102       40 1
      90      103       40 1
      91      104       40 1
      92       42       41 1
      93      105       41 1
      94      106       41 1
      95       43       42 1
      96       53       42 1
      97      107       42 1
      98       44       43 1
      99      108       43 1
     100      109       43 1
     101       45       44 1
     102      110       44 1
     103      111       44 1
     104       46       45 1
     105      112       45 1
     106      113       45 1
     107       47       46 1
     108      114       46 1
     109      115       46 1
     110       48       47 1
     111      116       47 1
     112      117       47 1
     113       49       48 1
     114      118       48 1
     115      119       48 1
     116       50       49 1
     117      120       49 1
     118      121       49 1
     119       51       50 1
     120      122       50 1
     121      123       50 1
     122       52       51 1
     123      124       51 1
     124      125       51 1
     125      126       52 1
     126      127       52 1
     127      128       52 1
     128       54       53 1
     129      129       53 1
     130      130       53 1
     131       55       54 1
     132      131       54 1
     133      132       54 1
     134       56       55 1
     135      133       55 1
     136      134       55 1
     137       57       56 1
     138      135       56 1
     139      136       56 1
     140       58       57 1
     141      137       57 1
     142      138       57 1
     143       59       58 1
     144      139       58 1
     145      140       58 1
     146       60       59 1
     147      141       59 1
     148      142       59 1
     149      143       60 1
     150      144       60 1
     151      145       60 1
     152      147      146 1
     153      166      146 1
     154      186      146 1
     155      150      146 1
     156      148      147 1
     157      165      147 1
     158      149      148 1
     159      163      148 1
     160      150      149 1
     161      153      149 1
     162      151      150 1
     163      152      151 1
     164      206      151 1
     165      153      152 1
     166      154      152 1
     167      155      154 1
     168      159      154 1
     169      156      155 1
     170      207      155 1
     171      157      156 1
     172      158      157 1
     173      159      158 1
     174      162      158 1
     175      160      159 1
     176      161      160 1
     177      162      161 1
     178      164      163 1
     179      165      164 1
     180      302      164 1
     181      208      165 1
     182      167      166 1
     183      209      166 1
     184      210      166 1
     185      168      167 1
     186      178      167 1
     187      211      167 1
     188      169      168 1
     189      212      168 1
     190      213      168 1
     191      170      169 1
     192      214      169 1
     193      215      169 1
     194      171      170 1
     195      216      170 1
     196      217      170 1
     197      172      171 1
     198      218      171 1
     199      219      171 1
     200      173      172 1
     201      220      172 1
     202      221      172 1
     203      174      173 1
     204      222      173 1
     205      223      173 1
     206      175      174 1
     207      224      174 1
     208      225      174 1
     209      176      175 1
     210      226      175 1
     211      227      175 1
     212      177      176 1
     213      228      176 1
     214      229      176 1
     215      230      177 1
     216      231      177 1
     217      232      177 1
     218      179      178 1
     219      233      178 1
     220      234      178 1
     221      180      179 1
     222      235      179 1
     223      236      179 1
     224      181      180 1
     225      237      180 1
     226      238      180 1
     227      182      181 1
     228      239      181 1
     229      240      181 1
     230      183      182 1
     231      241      182 1
     232      242      182 1
     233      184      183 1
     234      243      183 1
     235      244      183 1
     236      185      184 1
     237      245      184 1
     238      246      184 1
     239      247      185 1
     240      248      185 1
     241      249      185 1
     242      187      186 1
     243      250      186 1
     244      251      186 1
     245      188      187 1
     246      198      187 1
     247      252      187 1
     248      189      188 1
     249      253      188 1
     250      254      188 1
     251      190      189 1
     252      255      189 1
     253      256      189 1
     254      191      190 1
     255      257      190 1
     256      258      190 1
     257      192      191 1
     258      259      191 1
     259      260      191 1
     260      193      192 1
     261      261      192 1
     262      262      192 1
     263      194      193 1
     264      263      193 1
     265      264      193 1
     266      195      194 1
     267      265      194 1
     268      266      194 1
     269      196      195 1
     270      267      195 1
     271      268      195 1
     272      197      196 1
     273      269      196 1
     274      270      196 1
     275      271      197 1
     276      272      197 1
     277      273      197 1
     278      199      198 1
     279      274      198 1
     280      275      198 1
     281      200      199 1
     282      276      199 1
     283      277      199 1
     284      201      200 1
     285      278      200 1
     286      279      200 1
     287      202      201 1
     288      280      201 1
     289      281      201 1
     290      203      202 1
     291      282      202 1
     292      283      202 1
     293      204      203 1
     294      284      203 1
     295      285      203 1
     296      205      204 1
     297      286      204 1
     298      287      204 1
     299      288      205 1
     300      289      205 1
     301      290      205 1
     302      292      291 1
     303      311      291 1
     304      331      291 1
     305      295      291 1
     306      293      292 1
     307      310      292 1
     308      294      293 1
     309      308      293 1
     310      295      294 1
     311      298      294 1
     312      296      295 1
     313      297      296 1
     314      351      296 1
     315      298      297 1
     316      299      297 1
     317      300      299 1
     318      304      299 1
     319      301      300 1
     320      352      300 1
     321      302      301 1
     322      303      302 1
     323      304      303 1
     324      307      303 1
     325      305      304 1
     326      306      305 1
     327      307      306 1
     328      309      308 1
     329      310      309 1
     330      447      309 1
     331      353      310 1
     332      312      311 1
     333      354      311 1
     334      355      311 1
     335      313      312 1
     336      323      312 1
     337      356      312 1
     338      314      313 1
     339      357      313 1
     340      358      313 1
     341      315      314 1
     342      359      314 1
     343      360      314 1
     344      316      315 1
     345      361      315 1
     346      362      315 1
     347      317      316 1
     348      363      316 1
     349      364      316 1
     350      318      317 1
     351      365      317 1
     352      366      317 1
     353      319      318 1
     354      367      318 1
     355      368      318 1
     356      320      319 1
     357      369      319 1
     358      370      319 1
     359      321      320 1
     360      371      320 1
     361      372      320 1
     362      322      321 1
     363      373      321 1
     364      374      321 1
     365      375      322 1
     366      376      322 1
     367      377      322 1
     368      324      323 1
     369      378      323 1
     370      379      323 1
     371      325      324 1
     372      380      324 1
     373      381      324 1
     374      326      325 1
     375      382      325 1
     376      383      325 1
     377      327      326 1
     378      384      326 1
     379      385      326 1
     380      328      327 1
     381      386      327 1
     382      387      327 1
     383      329      328 1
     384      388      328 1
     385      389      328 1
     386      330      329 1
     387      390      329 1
     388      391      329 1
     389      392      330 1
     390      393      330 1
     391      394      330 1
     392      332      331 1
     393      395      331 1
     394      396      331 1
     395      333      332 1
     396      343      332 1
     397      397      332 1
     398      334      333 1
     399      398      333 1
     400      399      333 1
     401      335      334 1
     402      400      334 1
     403      401      334 1
     404      336      335 1
     405      402      335 1
     406      403      335 1
     407      337      336 1
     408      404      336 1
     409      405      336 1
     410      338      337 1
     411      406      337 1
     412      407      337 1
     413      339      338 1
     414      408      338 1
     415      409      338 1
     416      340      339 1
     417      410      339 1
     418      411      339 1
     419      341      340 1
     420      412      340 1
     421      413      340 1
     422      342      341 1
     423      414      341 1
     424      415      341 1
     425      416      342 1
     426      417      342 1
     427      418      342 1
     428      344      343 1
     429      419      343 1
     430      420      343 1
     431      345      344 1
     432      421      344 1
     433      422      344 1
     434      346      345 1
     435      423      345 1
     436      424      345 1
     437      347      346 1
     438      425      346 1
     439      426      346 1
     440      348      347 1
     441      427      347 1
     442      428      347 1
     443      349      348 1
     444      429      348 1
     445      430      348 1
     446      350      349 1
     447      431      349 1
     448      432      349 1
     449      433      350 1
     450      434      350 1
     451      435      350 1
     452      437      436 1
     453      456      436 1
     454      476      436 1
     455      440      436 1
     456      438      437 1
     457      455      437 1
     458      439      438 1
     459      453      438 1
     460      440      439 1
     461      443      439 1
     462      441      440 1
     463      442      441 1
     464      496      441 1
     465      443      442 1
     466      444      442 1
     467      445      444 1
     468      449      444 1
     469      446      445 1
     470      497      445 1
     471      447      446 1
     472      448      447 1
     473      449      448 1
     474      452      448 1
     475      450      449 1
     476      451      450 1
     477      452      451 1
     478      454      453 1
     479      455      454 1
     480      592      454 1
     481      498      455 1
     482      457      456 1
     483      499      456 1
     484      500      456 1
     485      458      457 1
     486      468      457 1
     487      501      457 1
     488      459      458 1
     489      502      458 1
     490      503      458 1
     491      460      459 1
     492      504      459 1
     493      505      459 1
     494      461      460 1
     495      506      460 1
     496      507      460 1
     497      462      461 1
     498      508      461 1
     499      509      461 1
     500      463      462 1
     501      510      462 1
     502      511      462 1
     503      464      463 1
     504      512      463 1
     505      513      463 1
     506      465      464 1
     507      514      464 1
     508      515      464 1
     509      466      465 1
     510      516      465 1
     511      517      465 1
     512      467      466 1
     513      518      466 1
     514      519      466 1
     515      520      467 1
     516      521      467 1
     517      522      467 1
     518      469      468 1
     519      523      468 1
     520      524      468 1
     521      470      469 1
     522      525      469 1
     523      526      469 1
     524      471      470 1
     525      527      470 1
     526      528      470 1
     527      472      471 1
     528      529      471 1
     529      530      471 1
     530      473      472 1
     531      531      472 1
     532      532      472 1
     533      474      473 1
     534      533      473 1
     535      534      473 1
     536      475      474 1
     537      535      474 1
     538      536      474 1
     539      537      475 1
     540      538      475 1
     541      539      475 1
     542      477      476 1
     543      540      476 1
     544      541      476 1
     545      478      477 1
     546      488      477 1
     547      542      477 1
     548      479      478 1
     549      543      478 1
     550      544      478 1
     551      480      479 1
     552      545      479 1
     553      546      479 1
     554      481      480 1
     555      547      480 1
     556      548      480 1
     557      482      481 1
     558      549      481 1
     559      550      481 1
     560      483      482 1
     561      551      482 1
     562      552      482 1
     563      484      483 1
     564      553      483 1
     565      554      483 1
     566      485      484 1
     567      555      484 1
     568      556      484 1
     569      486      485 1
     570      557      485 1
     571      558      485 1
     572      487      486 1
     573      559      486 1
     574      560      486 1
     575      561      487 1
     576      562      487 1
     577      563      487 1
     578      489      488 1
     579      564      488 1
     580      565      488 1
     581      490      489 1
     582      566      489 1
     583      567      489 1
     584      491      490 1
     585      568      490 1
     586      569      490 1
     587      492      491 1
     588      570      491 1
     589      571      491 1
     590      493      492 1
     591      572      492 1
     592      573      492 1
     593      494      493 1
     594      574      493 1
     595      575      493 1
     596      495      494 1
     597      576      494 1
     598      577      494 1
     599      578      495 1
     600      579      495 1
     601      580      495 1
     602      582      581 1
     603      601      581 1
     604      621      581 1
     605      585      581 1
     606      583      582 1
     607      600      582 1
     608      584      583 1
     609      598      583 1
     610      585      584 1
     611      588      584 1
     612      586      585 1
     613      587      586 1
     614      641      586 1
     615      588      587 1
     616      589      587 1
     617      590      589 1
     618      594      589 1
     619      591      590 1
     620      642      590 1
     621      592      591 1
     622      593      592 1
     623      594      593 1
     624      597      593 1
     625      595      594 1
     626      596      595 1
     627      597      596 1
     628      599      598 1
     629      600      599 1
     630      737      599 1
     631      643      600 1
     632      602      601 1
     633      644      601 1
     634      645      601 1
     635      603      602 1
     636      613      602 1
     637      646      602 1
     638      604      603 1
     639      647      603 1
     640      648      603 1
     641      605      604 1
     642      649      604 1
     643      650      604 1
     644      606      605 1
     645      651      605 1
     646      652      605 1
     647      607      606 1
     648      653      606 1
     649      654      606 1
     650      608      607 1
     651      655      607 1
     652      656      607 1
     653      609      608 1
     654      657      608 1
     655      658      608 1
     656      610      609 1
     657      659      609 1
     658      660      609 1
     659      611      610 1
     660      661      610 1
     661      662      610 1
     662      612      611 1
     663      663      611 1
     664      664      611 1
     665      665      612 1
     666      666      612 1
     667      667      612 1
     668      614      613 1
     669      668      613 1
     670      669      613 1
     671      615      614 1
     672      670      614 1
     673      671      614 1
     674      616      615 1
     675      672      615 1
     676      673      615 1
     677      617      616 1
     678      674      616 1
     679      675      616 1
     680      618      617 1
     681      676      617 1
     682      677      617 1
     683      619      618 1
     684      678      618 1
     685      679      618 1
     686      620      619 1
     687      680      619 1
     688      681      619 1
     689      682      620 1
     690      683      620 1
     691      684      620 1
     692      622      621 1
     693      685      621 1
     694      686      621 1
     695      623      622 1
     696      633      622 1
     697      687      622 1
     698      624      623 1
     699      688      623 1
     700      689      623 1
     701      625      624 1
     702      690      624 1
     703      691      624 1
     704      626      625 1
     705      692      625 1
     706      693      625 1
     707      627      626 1
     708      694      626 1
     709      695      626 1
     710      628      627 1
     711      696      627 1
     712      697      627 1
     713      629      628 1
     714      698      628 1
     715      699      628 1
     716      630      629 1
     717      700      629 1
     718      701      629 1
     719      631      630 1
     720      702      630 1
     721      703      630 1
     722      632      631 1
     723      704      631 1
     724      705      631 1
     725      706      632 1
     726      707      632 1
     727      708      632 1
     728      634      633 1
     729      709      633 1
     730      710      633 1
     731      635      634 1
     732      711      634 1
     733      712      634 1
     734      636      635 1
     735      713      635 1
     736      714      635 1
     737      637      636 1
     738      715      636 1
     739      716      636 1
     740      638      637 1
     741      717      637 1
     742      718      637 1
     743      639      638 1
     744      719      638 1
     745      720      638 1
     746      640      639 1
     747      721      639 1
     748      722      639 1
     749      723      640 1
     750      724      640 1
     751      725      640 1
     752      727      726 1
     753      746      726 1
     754      766      726 1
     755      730      726 1
     756      728      727 1
     757      745      727 1
     758      729      728 1
     759      743      728 1
     760      730      729 1
     761      733      729 1
     762      731      730 1
     763      732      731 1
     764      786      731 1
     765      733      732 1
     766      734      732 1
     767      735      734 1
     768      739      734 1
     769      736      735 1
     770      787      735 1
     771      737      736 1
     772      738      737 1
     773      739      738 1
     774      742      738 1
     775      740      739 1
     776      741      740 1
     777      742      741 1
     778      744      743 1
     779      745      744 1
     780      882      744 1
     781      788      745 1
     782      747      746 1
     783      789      746 1
     784      790      746 1
     785      748      747 1
     786      758      747 1
     787      791      747 1
     788      749      748 1
     789      792      748 1
     790      793      748 1
     791      750      749 1
     792      794      749 1
     793      795      749 1
     794      751      750 1
     795      796      750 1
     796      797      750 1
     797      752      751 1
     798      798      751 1
     799      799      751 1
     800      753      752 1
     801      800      752 1
     802      801      752 1
     803      754      753 1
     804      802      753 1
     805      803      753 1
     806      755      754 1
     807      804      754 1
     808      805      754 1
     809      756      755 1
     810      806      755 1
     811      807      755 1
     812      757      756 1
     813      808      756 1
     814      809      756 1
     815      810      757 1
     816      811      757 1
     817      812      757 1
     818      759      758 1
     819      813      758 1
     820      814      758 1
     821      760      759 1
     822      815      759 1
     823      816      759 1
     824      761      760 1
     825      817      760 1
     826      818      760 1
     827      762      761 1
     828      819      761 1
     829      820      761 1
     830      763      762 1
     831      821      762 1
     832      822      762 1
     833      764      763 1
     834      823      763 1
     835      824      763 1
     836      765      764 1
     837      825      764 1
     838      826      764 1
     839      827      765 1
     840      828      765 1
     841      829      765 1
     842      767      766 1
     843      830      766 1
     844      831      766 1
     845      768      767 1
     846      778      767 1
     847      832      767 1
     848      769      768 1
     849      833      768 1
     850      834      768 1
     851      770      769 1
     852      835      769 1
     853      836      769 1
     854      771      770 1
     855      837      770 1
     856      838      770 1
     857      772      771 1
     858      839      771 1
     859      840      771 1
     860      773      772 1
     861      841      772 1
     862      842      772 1
     863      774      773 1
     864      843      773 1
     865      844      773 1
     866      775      774 1
     867      845      774 1
     868      846      774 1
     869      776      775 1
     870      847      775 1
     871      848      775 1
     872      777      776 1
     873      849      776 1
     874      850      776 1
     875      851      777 1
     876      852      777 1
     877      853      777 1
     878      779      778 1
     879      854      778 1
     880      855      778 1
     881      780      779 1
     882      856      779 1
     883      857      779 1
     884      781      780 1
     885      858      780 1
     886      859      780 1
     887      782      781 1
     888      860      781 1
     889      861      781 1
     890      783      782 1
     891      862      782 1
     892      863      782 1
     893      784      783 1
     894      864      783 1
     895      865      783 1
     896      785      784 1
     897      866      784 1
     898      867      784 1
     899      868      785 1
     900      869      785 1
     901      870      785 1
     902      872      871 1
     903      891      871 1
     904      911      871 1
     905      875      871 1
     906      873      872 1
     907      890      872 1
     908      874      873 1
     909      888      873 1
     910      875      874 1
     911      878      874 1
     912      876      875 1
     913      877      876 1
     914      931      876 1
     915      878      877 1
     916      879      877 1
     917      880      879 1
     918      884      879 1
     919      881      880 1
     920      932      880 1
     921      882      881 1
     922      883      882 1
     923      884      883 1
     924      887      883 1
     925      885      884 1
     926      886      885 1
     927      887      886 1
     928      889      888 1
     929      890      889 1
     930     1027      889 1
     931      933      890 1
     932      892      891 1
     933      934      891 1
     934      935      891 1
     935      893      892 1
     936      903      892 1
     937      936      892 1
     938      894      893 1
     939      937      893 1
     940      938      893 1
     941      895      894 1
     942      939      894 1
     943      940      894 1
     944      896      895 1
     945      941      895 1
     946      942      895 1
     947      897      896 1
     948      943      896 1
     949      944      896 1
     950      898      897 1
     951      945      897 1
     952      946      897 1
     953      899      898 1
     954      947      898 1
     955      948      898 1
     956      900      899 1
     957      949      899 1
     958      950      899 1
     959      901      900 1
     960      951      900 1
     961      952      900 1
     962      902      901 1
     963      953      901 1
     964      954      901 1
     965      955      902 1
     966      956      902 1
     967      957      902 1
     968      904      903 1
     969      958      903 1
     970      959      903 1
     971      905      904 1
     972      960      904 1
     973      961      904 1
     974      906      905 1
     975      962      905 1
     976      963      905 1
     977      907      906 1
     978      964      906 1
     979      965      906 1
     980      908      907 1
     981      966      907 1
     982      967      907 1
     983      909      908 1
     984      968      908 1
     985      969      908 1
     986      910      909 1
     987      970      909 1
     988      971      909 1
     989      972      910 1
     990      973      910 1
     991      974      910 1
     992      912      911 1
     993      975      911 1
     994      976      911 1
     995      913      912 1
     996      923      912 1
     997      977      912 1
     998      914      913 1
     999      978      913 1
    1000      979      913 1
    1001      915      914 1
    1002      980      914 1
    1003      981      914 1
    1004      916      915 1
    1005      982      915 1
    1006      983      915 1
    1007      917      916 1
    1008      984      916 1
    1009      985      916 1
    1010      918      917 1
    1011      986      917 1
    1012      987      917 1
    1013      919      918 1
    1014      988      918 1
    1015      989      918 1
    1016      920      919 1
    1017      990      919 1
    1018      991      919 1
    1019      921      920 1
    1020      992      920 1
    1021      993      920 1
    1022      922      921 1
    1023      994      921 1
    1024      995      921 1
    1025      996      922 1
    1026      997      922 1
    1027      998      922 1
    1028      924      923 1
    1029      999      923 1
    1030     1000      923 1
    1031      925      924 1
    1032     1001      924 1
    1033     1002      924 1
    1034      926      925 1
    1035     1003      925 1
    1036     1004      925 1
    1037      927      926 1
    1038     1005      926 1
    1039     1006      926 1
    1040      928      927 1
    1041     1007      927 1
    1042     1008      927 1
    1043      929      928 1
    1044     1009      928 1
    1045     1010      928 1
    1046      930      929 1
    1047     1011      929 1
    1048     1012      929 1
    1049     1013      930 1
    1050     1014      930 1
    1051     1015      930 1
    1052     1017     1016 1
    1053     1036     1016 1
    1054     1056     1016 1
    1055     1020     1016 1
    1056     1018     1017 1
    1057     1035     1017 1
    1058     1019     1018 1
    1059     1033     1018 1
    1060     1020     1019 1
    1061     1023     1019 1
    1062     1021     1020 1
    1063     1022     1021 1
    1064     1076     1021 1
    1065     1023     1022 1
    1066     1024     1022 1
    1067     1025     1024 1
    1068     1029     1024 1
    1069     1026     1025 1
    1070     1077     1025 1
    1071     1027     1026 1
    1072     1028     1027 1
    1073     1029     1028 1
    1074     1032     1028 1
    1075     1030     1029 1
    1076     1031     1030 1
    1077     1032     1031 1
    1078     1034     1033 1
    1079     1035     1034 1
    1080     1172     1034 1
    1081     1078     1035 1
    1082     1037     1036 1
    1083     1079     1036 1
    1084     1080     1036 1
    1085     1038     1037 1
    1086     1048     1037 1
    1087     1081     1037 1
    1088     1039     1038 1
    1089     1082     1038 1
    1090     1083     1038 1
    1091     1040     1039 1
    1092     1084     1039 1
    1093     1085     1039 1
    1094     1041     1040 1
    1095     1086     1040 1
    1096     1087     1040 1
    1097     1042     1041 1
    1098     1088     1041 1
    1099     1089     1041 1
    1100     1043     1042 1
    1101     1090     1042 1
    1102     1091     1042 1
    1103     1044     1043 1
    1104     1092     1043 1
    1105     1093     1043 1
    1106     1045     1044 1
    1107     1094     1044 1
    1108     1095     1044 1
    1109     1046     1045 1
    1110     1096     1045 1
    1111     1097     1045 1
    1112     1047     1046 1
    1113     1098     1046 1
    1114     1099     1046 1
    1115     1100     1047 1
    1116     1101     1047 1
    1117     1102     1047 1
    1118     1049     1048 1
    1119     1103     1048 1
    1120     1104     1048 1
    1121     1050     1049 1
    1122     1105     1049 1
    1123     1106     1049 1
    1124     1051     1050 1
    1125     1107     1050 1
    1126     1108     1050 1
    1127     1052     1051 1
    1128     1109     1051 1
    1129     1110     1051 1
    1130     1053     1052 1
    1131     1111     1052 1
    1132     1112     1052 1
    1133     1054     1053 1
    1134     1113     1053 1
    1135     1114     1053 1
    1136     1055     1054 1
    1137     1115     1054 1
    1138     1116     1054 1
    1139     1117     1055 1
    1140     1118     1055 1
    1141     1119     1055 1
    1142     1057     1056 1
    1143     1120     1056 1
    1144     1121     1056 1
    1145     1058     1057 1
    1146     1068     1057 1
    1147     1122     1057 1
    1148     1059     1058 1
    1149     1123     1058 1
    1150     1124     1058 1
    1151     1060     1059 1
    1152     1125     1059 1
    1153     1126     1059 1
    1154     1061     1060 1
    1155     1127     1060 1
    1156     1128     1060 1
    1157     1062     1061 1
    1158     1129     1061 1
    1159     1130     1061 1
    1160     1063     1062 1
    1161     1131     1062 1
    1162     1132     1062 1
    1163     1064     1063 1
    1164     1133     1063 1
    1165     1134     1063 1
    1166     1065     1064 1
    1167     1135     1064 1
    1168     1136     1064 1
    1169     1066     1065 1
    1170     1137     1065 1
    1171     1138     1065 1
    1172     1067     1066 1
    1173     1139     1066 1
    1174     1140     1066 1
    1175     1141     1067 1
    1176     1142     1067 1
    1177     1143     1067 1
    1178     1069     1068 1
    1179     1144     1068 1
    1180     1145     1068 1
    1181     1070     1069 1
    1182     1146     1069 1
    1183     1147     1069 1
    1184     1071     1070 1
    1185     1148     1070 1
    1186     1149     1070 1
    1187     1072     1071 1
    1188     1150     1071 1
    1189     1151     1071 1
    1190     1073     1072 1
    1191     1152     1072 1
    1192     1153     1072 1
    1193     1074     1073 1
    1194     1154     1073 1
    1195     1155     1073 1
    1196     1075     1074 1
    1197     1156     1074 1
    1198     1157     1074 1
    1199     1158     1075 1
    1200     1159     1075 1
    1201     1160     1075 1
    1202     1162     1161 1
    1203     1181     1161 1
    1204     1201     1161 1
    1205     1165     1161 1
    1206     1163     1162 1
    1207     1180     1162 1
    1208     1164     1163 1
    1209     1178     1163 1
    1210     1165     1164 1
    1211     1168     1164 1
    1212     1166     1165 1
    1213     1167     1166 1
    1214     1221     1166 1
    1215     1168     1167 1
    1216     1169     1167 1
    1217     1170     1169 1
    1218     1174     1169 1
    1219     1171     1170 1
    1220     1222     1170 1
    1221     1172     1171 1
    1222     1173     1172 1
    1223     1174     1173 1
    1224     1177     1173 1
    1225     1175     1174 1
    1226     1176     1175 1
    1227     1177     1176 1
    1228     1179     1178 1
    1229     1180     1179 1
    1230     1317     1179 1
    1231     1223     1180 1
    1232     1182     1181 1
    1233     1224     1181 1
    1234     1225     1181 1
    1235     1183     1182 1
    1236     1193     1182 1
    1237     1226     1182 1
    1238     1184     1183 1
    1239     1227     1183 1
    1240     1228     1183 1
    1241     1185     1184 1
    1242     1229     1184 1
    1243     1230     1184 1
    1244     1186     1185 1
    1245     1231     1185 1
    1246     1232     1185 1
    1247     1187     1186 1
    1248     1233     1186 1
    1249     1234     1186 1
    1250     1188     1187 1
    1251     1235     1187 1
    1252     1236     1187 1
    1253     1189     1188 1
    1254     1237     1188 1
    1255     1238     1188 1
    1256     1190     1189 1
    1257     1239     1189 1
    1258     1240     1189 1
    1259     1191     1190 1
    1260     1241     1190 1
    1261     1242     1190 1
    1262     1192     1191 1
    1263     1243     1191 1
    1264     1244     1191 1
    1265     1245     1192 1
    1266     1246     1192 1
    1267     1247     1192 1
    1268     1194     1193 1
    1269     1248     1193 1
    1270     1249     1193 1
    1271     1195     1194 1
    1272     1250     1194 1
    1273     1251     1194 1
    1274     1196     1195 1
    1275     1252     1195 1
    1276     1253     1195 1
    1277     1197     1196 1
    1278     1254     1196 1
    1279     1255     1196 1
    1280     1198     1197 1
    1281     1256     1197 1
    1282     1257     1197 1
    1283     1199     1198 1
    1284     1258     1198 1
    1285     1259     1198 1
    1286     1200     1199 1
    1287     1260     1199 1
    1288     1261     1199 1
    1289     1262     1200 1
    1290     1263     1200 1
    1291     1264     1200 1
    1292     1202     1201 1
    1293     1265     1201 1
    1294     1266     1201 1
    1295     1203     1202 1
    1296     1213     1202 1
    1297     1267     1202 1
    1298     1204     1203 1
    1299     1268     1203 1
    1300     1269     1203 1
    1301     1205     1204 1
    1302     1270     1204 1
    1303     1271     1204 1
    1304     1206     1205 1
    1305     1272     1205 1
    1306     1273     1205 1
    1307     1207     1206 1
    1308     1274     1206 1
    1309     1275     1206 1
    1310     1208     1207 1
    1311     1276     1207 1
    1312     1277     1207 1
    1313     1209     1208 1
    1314     1278     1208 1
    1315     1279     1208 1
    1316     1210     1209 1
    1317     1280     1209 1
    1318     1281     1209 1
    1319     1211     1210 1
    1320     1282     1210 1
    1321     1283     1210 1
    1322     1212     1211 1
    1323     1284     1211 1
    1324     1285     1211 1
    1325     1286     1212 1
    1326     1287     1212 1
    1327     1288     1212 1
    1328     1214     1213 1
    1329     1289     1213 1
    1330     1290     1213 1
    1331     1215     1214 1
    1332     1291     1214 1
    1333     1292     1214 1
    1334     1216     1215 1
    1335     1293     1215 1
    1336     1294     1215 1
    1337     1217     1216 1
    1338     1295     1216 1
    1339     1296     1216 1
    1340     1218     1217 1
    1341     1297     1217 1
    1342     1298     1217 1
    1343     1219     1218 1
    1344     1299     1218 1
    1345     1300     1218 1
    1346     1220     1219 1
    1347     1301     1219 1
    1348     1302     1219 1
    1349     1303     1220 1
    1350     1304     1220 1
    1351     1305     1220 1
    1352     1307     1306 1
    1353     1326     1306 1
    1354     1346     1306 1
    1355     1310     1306 1
    1356     1308     1307 1
    1357     1325     1307 1
    1358     1309     1308 1
    1359     1323     1308 1
    1360     1310     1309 1
    1361     1313     1309 1
    1362     1311     1310 1
    1363     1312     1311 1
    1364     1366     1311 1
    1365     1313     1312 1
    1366     1314     1312 1
    1367     1315     1314 1
    1368     1319     1314 1
    1369     1316     1315 1
    1370     1367     1315 1
    1371     1317     1316 1
    1372     1318     1317 1
    1373     1319     1318 1
    1374     1322     1318 1
    1375     1320     1319 1
    1376     1321     1320 1
    1377     1322     1321 1
    1378     1324     1323 1
    1379     1325     1324 1
    1380     1462     1324 1
    1381     1368     1325 1
    1382     1327     1326 1
    1383     1369     1326 1
    1384     1370     1326 1
    1385     1328     1327 1
    1386     1338     1327 1
    1387     1371     1327 1
    1388     1329     1328 1
    1389     1372     1328 1
    1390     1373     1328 1
    1391     1330     1329 1
    1392     1374     1329 1
    1393     1375     1329 1
    1394     1331     1330 1
    1395     1376     1330 1
    1396     1377     1330 1
    1397     1332     1331 1
    1398     1378     1331 1
    1399     1379     1331 1
    1400     1333     1332 1
    1401     1380     1332 1
    1402     1381     1332 1
    1403     1334     1333 1
    1404     1382     1333 1
    1405     1383     1333 1
    1406     1335     1334 1
    1407     1384     1334 1
    1408     1385     1334 1
    1409     1336     1335 1
    1410     1386     1335 1
    1411     1387     1335 1
    1412     1337     1336 1
    1413     1388     1336 1
    1414     1389     1336 1
    1415     1390     1337 1
    1416     1391     1337 1
    1417     1392     1337 1
    1418     1339     1338 1
    1419     1393     1338 1
    1420     1394     1338 1
    1421     1340     1339 1
    1422     1395     1339 1
    1423     1396     1339 1
    1424     1341     1340 1
    1425     1397     1340 1
    1426     1398     1340 1
    1427     1342     1341 1
    1428     1399     1341 1
    1429     1400     1341 1
    1430     1343     1342 1
    1431     1401     1342 1
    1432     1402     1342 1
    1433     1344     1343 1
    1434     1403     1343 1
    1435     1404     1343 1
    1436     1345     1344 1
    1437     1405     1344 1
    1438     1406     1344 1
    1439     1407     1345 1
    1440     1408     1345 1
    1441     1409     1345 1
    1442     1347     1346 1
    1443     1410     1346 1
    1444     1411     1346 1
    1445     1348     1347 1
    1446     1358     1347 1
    1447     1412     1347 1
    1448     1349     1348 1
    1449     1413     1348 1
    1450     1414     1348 1
    1451     1350     1349 1
    1452     1415     1349 1
    1453     1416     1349 1
    1454     1351     1350 1
    1455     1417     1350 1
    1456     1418     1350 1
    1457     1352     1351 1
    1458     1419     1351 1
    1459     1420     1351 1
    1460     1353     1352 1
    1461     1421     1352 1
    1462     1422     1352 1
    1463     1354     1353 1
    1464     1423     1353 1
    1465     1424     1353 1
    1466     1355     1354 1
    1467     1425     1354 1
    1468     1426     1354 1
    1469     1356     1355 1
    1470     1427     1355 1
    1471     1428     1355 1
    1472     1357     1356 1
    1473     1429     1356 1
    1474     1430     1356 1
    1475     1431     1357 1
    1476     1432     1357 1
    1477     1433     1357 1
    1478     1359     1358 1
    1479     1434     1358 1
    1480     1435     1358 1
    1481     1360     1359 1
    1482     1436     1359 1
    1483     1437     1359 1
    1484     1361     1360 1
    1485     1438     1360 1
    1486     1439     1360 1
    1487     1362     1361 1
    1488     1440     1361 1
    1489     1441     1361 1
    1490     1363     1362 1
    1491     1442     1362 1
    1492     1443     1362 1
    1493     1364     1363 1
    1494     1444     1363 1
    1495     1445     1363 1
    1496     1365     1364 1
    1497     1446     1364 1
    1498     1447     1364 1
    1499     1448     1365 1
    1500     1449     1365 1
    1501     1450     1365 1
    1502     1452     1451 1
    1503     1471     1451 1
    1504     1491     1451 1
    1505     1455     1451 1
    1506     1453     1452 1
    1507     1470     1452 1
    1508     1454     1453 1
    1509     1468     1453 1
    1510     1455     1454 1
    1511     1458     1454 1
    1512     1456     1455 1
    1513     1457     1456 1
    1514     1511     1456 1
    1515     1458     1457 1
    1516     1459     1457 1
    1517     1460     1459 1
    1518     1464     1459 1
    1519     1461     1460 1
    1520     1512     1460 1
    1521     1462     1461 1
    1522     1463     1462 1
    1523     1464     1463 1
    1524     1467     1463 1
    1525     1465     1464 1
    1526     1466     1465 1
    1527     1467     1466 1
    1528     1469     1468 1
    1529     1470     1469 1
    1530     1607     1469 1
    1531     1513     1470 1
    1532     1472     1471 1
    1533     1514     1471 1
    1534     1515     1471 1
    1535     1473     1472 1
    1536     1483     1472 1
    1537     1516     1472 1
    1538     1474     1473 1
    1539     1517     1473 1
    1540     1518     1473 1
    1541     1475     1474 1
    1542     1519     1474 1
    1543     1520     1474 1
    1544     1476     1475 1
    1545     1521     1475 1
    1546     1522     1475 1
    1547     1477     1476 1
    1548     1523     1476 1
    1549     1524     1476 1
    1550     1478     1477 1
    1551     1525     1477 1
    1552     1526     1477 1
    1553     1479     1478 1
    1554     1527     1478 1
    1555     1528     1478 1
    1556     1480     1479 1
    1557     1529     1479 1
    1558     1530     1479 1
    1559     1481     1480 1
    1560     1531     1480 1
    1561     1532     1480 1
    1562     1482     1481 1
    1563     1533     1481 1
    1564     1534     1481 1
    1565     1535     1482 1
    1566     1536     1482 1
    1567     1537     1482 1
    1568     1484     1483 1
    1569     1538     1483 1
    1570     1539     1483 1
    1571     1485     1484 1
    1572     1540     1484 1
    1573     1541     1484 1
    1574     1486     1485 1
    1575     1542     1485 1
    1576     1543     1485 1
    1577     1487     1486 1
    1578     1544     1486 1
    1579     1545     1486 1
    1580     1488     1487 1
    1581     1546     1487 1
    1582     1547     1487 1
    1583     1489     1488 1
    1584     1548     1488 1
    1585     1549     1488 1
    1586     1490     1489 1
    1587     1550     1489 1
    1588     1551     1489 1
    1589     1552     1490 1
    1590     1553     1490 1
    1591     1554     1490 1
    1592     1492     1491 1
    1593     1555     1491 1
    1594     1556     1491 1
    1595     1493     1492 1
    1596     1503     1492 1
    1597     1557     1492 1
    1598     1494     1493 1
    1599     1558     1493 1
    1600     1559     1493 1
    1601     1495     1494 1
    1602     1560     1494 1
    1603     1561     1494 1
    1604     1496     1495 1
    1605     1562     1495 1
    1606     1563     1495 1
    1607     1497     1496 1
    1608     1564     1496 1
    1609     1565     1496 1
    1610     1498     1497 1
    1611     1566     1497 1
    1612     1567     1497 1
    1613     1499     1498 1
    1614     1568     1498 1
    1615     1569     1498 1
    1616     1500     1499 1
    1617     1570     1499 1
    1618     1571     1499 1
    1619     1501     1500 1
    1620     1572     1500 1
    1621     1573     1500 1
    1622     1502     1501 1
    1623     1574     1501 1
    1624     1575     1501 1
    1625     1576     1502 1
    1626     1577     1502 1
    1627     1578     1502 1
    1628     1504     1503 1
    1629     1579     1503 1
    1630     1580     1503 1
    1631     1505     1504 1
    1632     1581     1504 1
    1633     1582     1504 1
    1634     1506     1505 1
    1635     1583     1505 1
    1636     1584     1505 1
    1637     1507     1506 1
    1638     1585     1506 1
    1639     1586     1506 1
    1640     1508     1507 1
    1641     1587     1507 1
    1642     1588     1507 1
    1643     1509     1508 1
    1644     1589     1508 1
    1645     1590     1508 1
    1646     1510     1509 1
    1647     1591     1509 1
    1648     1592     1509 1
    1649     1593     1510 1
    1650     1594     1510 1
    1651     1595     1510 1
    1652     1597     1596 1
    1653     1616     1596 1
    1654     1636     1596 1
    1655     1600     1596 1
    1656     1598     1597 1
    1657     1615     1597 1
    1658     1599     1598 1
    1659     1613     1598 1
    1660     1600     1599 1
    1661     1603     1599 1
    1662     1601     1600 1
    1663     1602     1601 1
    1664     1656     1601 1
    1665     1603     1602 1
    1666     1604     1602 1
    1667     1605     1604 1
    1668     1609     1604 1
    1669     1606     1605 1
    1670     1657     1605 1
    1671     1607     1606 1
    1672     1608     1607 1
    1673     1609     1608 1
    1674     1612     1608 1
    1675     1610     1609 1
    1676     1611     1610 1
    1677     1612     1611 1
    1678     1614     1613 1
    1679     1615     1614 1
    1680     1752     1614 1
    1681     1658     1615 1
    1682     1617     1616 1
    1683     1659     1616 1
    1684     1660     1616 1
    1685     1618     1617 1
    1686     1628     1617 1
    1687     1661     1617 1
    1688     1619     1618 1
    1689     1662     1618 1
    1690     1663     1618 1
    1691     1620     1619 1
    1692     1664     1619 1
    1693     1665     1619 1
    1694     1621     1620 1
    1695     1666     1620 1
    1696     1667     1620 1
    1697     1622     1621 1
    1698     1668     1621 1
    1699     1669     1621 1
    1700     1623     1622 1
    1701     1670     1622 1
    1702     1671     1622 1
    1703     1624     1623 1
    1704     1672     1623 1
    1705     1673     1623 1
    1706     1625     1624 1
    1707     1674     1624 1
    1708     1675     1624 1
    1709     1626     1625 1
    1710     1676     1625 1
    1711     1677     1625 1
    1712     1627     1626 1
    1713     1678     1626 1
    1714     1679     1626 1
    1715     1680     1627 1
    1716     1681     1627 1
    1717     1682     1627 1
    1718     1629     1628 1
    1719     1683     1628 1
    1720     1684     1628 1
    1721     1630     1629 1
    1722     1685     1629 1
    1723     1686     1629 1
    1724     1631     1630 1
    1725     1687     1630 1
    1726     1688     1630 1
    1727     1632     1631 1
    1728     1689     1631 1
    1729     1690     1631 1
    1730     1633     1632 1
    1731     1691     1632 1
    1732     1692     1632 1
    1733     1634     1633 1
    1734     1693     1633 1
    1735     1694     1633 1
    1736     1635     1634 1
    1737     1695     1634 1
    1738     1696     1634 1
    1739     1697     1635 1
    1740     1698     1635 1
    1741     1699     1635 1
    1742     1637     1636 1
    1743     1700     1636 1
    1744     1701     1636 1
    1745     1638     1637 1
    1746     1648     1637 1
    1747     1702     1637 1
    1748     1639     1638 1
    1749     1703     1638 1
    1750     1704     1638 1
    1751     1640     1639 1
    1752     1705     1639 1
    1753     1706     1639 1
    1754     1641     1640 1
    1755     1707     1640 1
    1756     1708     1640 1
    1757     1642     1641 1
    1758     1709     1641 1
    1759     1710     1641 1
    1760     1643     1642 1
    1761     1711     1642 1
    1762     1712     1642 1
    1763     1644     1643 1
    1764     1713     1643 1
    1765     1714     1643 1
    1766     1645     1644 1
    1767     1715     1644 1
    1768     1716     1644 1
    1769     1646     1645 1
    1770     1717     1645 1
    1771     1718     1645 1
    1772     1647     1646 1
    1773     1719     1646 1
    1774     1720     1646 1
    1775     1721     1647 1
    1776     1722     1647 1
    1777     1723     1647 1
    1778     1649     1648 1
    1779     1724     1648 1
    1780     1725     1648 1
    1781     1650     1649 1
    1782     1726     1649 1
    1783     1727     1649 1
    1784     1651     1650 1
    1785     1728     1650 1
    1786     1729     1650 1
    1787     1652     1651 1
    1788     1730     1651 1
    1789     1731     1651 1
    1790     1653     1652 1
    1791     1732     1652 1
    1792     1733     1652 1
    1793     1654     1653 1
    1794     1734     1653 1
    1795     1735     1653 1
    1796     1655     1654 1
    1797     1736     1654 1
    1798     1737     1654 1
    1799     1738     1655 1
    1800     1739     1655 1
    1801     1740     1655 1
    1802     1742     1741 1
    1803     1761     1741 1
    1804     1781     1741 1
    1805     1745     1741 1
    1806     1743     1742 1
    1807     1760     1742 1
    1808     1744     1743 1
    1809     1758     1743 1
    1810     1745     1744 1
    1811     1748     1744 1
    1812     1746     1745 1
    1813     1747     1746 1
    1814     1801     1746 1
    1815     1748     1747 1
    1816     1749     1747 1
    1817     1750     1749 1
    1818     1754     1749 1
    1819     1751     1750 1
    1820     1802     1750 1
    1821     1752     1751 1
    1822     1753     1752 1
    1823     1754     1753 1
    1824     1757     1753 1
    1825     1755     1754 1
    1826     1756     1755 1
    1827     1757     1756 1
    1828     1759     1758 1
    1829     1760     1759 1
    1830     1897     1759 1
    1831     1803     1760 1
    1832     1762     1761 1
    1833     1804     1761 1
    1834     1805     1761 1
    1835     1763     1762 1
    1836     1773     1762 1
    1837     1806     1762 1
    1838     1764     1763 1
    1839     1807     1763 1
    1840     1808     1763 1
    1841     1765     1764 1
    1842     1809     1764 1
    1843     1810     1764 1
    1844     1766     1765 1
    1845     1811     1765 1
    1846     1812     1765 1
    1847     1767     1766 1
    1848     1813     1766 1
    1849     1814     1766 1
    1850     1768     1767 1
    1851     1815     1767 1
    1852     1816     1767 1
    1853     1769     1768 1
    1854     1817     1768 1
    1855     1818     1768 1
    1856     1770     1769 1
    1857     1819     1769 1
    1858     1820     1769 1
    1859     1771     1770 1
    1860     1821     1770 1
    1861     1822     1770 1
    1862     1772     1771 1
    1863     1823     1771 1
    1864     1824     1771 1
    1865     1825     1772 1
    1866     1826     1772 1
    1867     1827     1772 1
    1868     1774     1773 1
    1869     1828     1773 1
    1870     1829     1773 1
    1871     1775     1774 1
    1872     1830     1774 1
    1873     1831     1774 1
    1874     1776     1775 1
    1875     1832     1775 1
    1876     1833     1775 1
    1877     1777     1776 1
    1878     1834     1776 1
    1879     1835     1776 1
    1880     1778     1777 1
    1881     1836     1777 1
    1882     1837     1777 1
    1883     1779     1778 1
    1884     1838     1778 1
    1885     1839     1778 1
    1886     1780     1779 1
    1887     1840     1779 1
    1888     1841     1779 1
    1889     1842     1780 1
    1890     1843     1780 1
    1891     1844     1780 1
    1892     1782     1781 1
    1893     1845     1781 1
    1894     1846     1781 1
    1895     1783     1782 1
    1896     1793     1782 1
    1897     1847     1782 1
    1898     1784     1783 1
    1899     1848     1783 1
    1900     1849     1783 1
    1901     1785     1784 1
    1902     1850     1784 1
    1903     1851     1784 1
    1904     1786     1785 1
    1905     1852     1785 1
    1906     1853     1785 1
    1907     1787     1786 1
    1908     1854     1786 1
    1909     1855     1786 1
    1910     1788     1787 1
    1911     1856     1787 1
    1912     1857     1787 1
    1913     1789     1788 1
    1914     1858     1788 1
    1915     1859     1788 1
    1916     1790     1789 1
    1917     1860     1789 1
    1918     1861     1789 1
    1919     1791     1790 1
    1920     1862     1790 1
    1921     1863     1790 1
    1922     1792     1791 1
    1923     1864     1791 1
    1924     1865     1791 1
    1925     1866     1792 1
    1926     1867     1792 1
    1927     1868     1792 1
    1928     1794     1793 1
    1929     1869     1793 1
    1930     1870     1793 1
    1931     1795     1794 1
    1932     1871     1794 1
    1933     1872     1794 1
    1934     1796     1795 1
    1935     1873     1795 1
    1936     1874     1795 1
    1937     1797     1796 1
    1938     1875     1796 1
    1939     1876     1796 1
    1940     1798     1797 1
    1941     1877     1797 1
    1942     1878     1797 1
    1943     1799     1798 1
    1944     1879     1798 1
    1945     1880     1798 1
    1946     1800     1799 1
    1947     1881     1799 1
    1948     1882     1799 1
    1949     1883     1800 1
    1950     1884     1800 1
    1951     1885     1800 1
    1952     1887     1886 1
    1953     1906     1886 1
    1954     1926     1886 1
    1955     1890     1886 1
    1956     1888     1887 1
    1957     1905     1887 1
    1958     1889     1888 1
    1959     1903     1888 1
    1960     1890     1889 1
    1961     1893     1889 1
    1962     1891     1890 1
    1963     1892     1891 1
    1964     1946     1891 1
    1965     1893     1892 1
    1966     1894     1892 1
    1967     1895     1894 1
    1968     1899     1894 1
    1969     1896     1895 1
    1970     1947     1895 1
    1971     1897     1896 1
    1972     1898     1897 1
    1973     1899     1898 1
    1974     1902     1898 1
    1975     1900     1899 1
    1976     1901     1900 1
    1977     1902     1901 1
    1978     1904     1903 1
    1979     1905     1904 1
    1980     2042     1904 1
    1981     1948     1905 1
    1982     1907     1906 1
    1983     1949     1906 1
    1984     1950     1906 1
    1985     1908     1907 1
    1986     1918     1907 1
    1987     1951     1907 1
    1988     1909     1908 1
    1989     1952     1908 1
    1990     1953     1908 1
    1991     1910     1909 1
    1992     1954     1909 1
    1993     1955     1909 1
    1994     1911     1910 1
    1995     1956     1910 1
    1996     1957     1910 1
    1997     1912     1911 1
    1998     1958     1911 1
    1999     1959     1911 1
    2000     1913     1912 1
    2001     1960     1912 1
    2002     1961     1912 1
    2003     1914     1913 1
    2004     1962     1913 1
    2005     1963     1913 1
    2006     1915     1914 1
    2007     1964     1914 1
    2008     1965     1914 1
    2009     1916     1915 1
    2010     1966     1915 1
    2011     1967     1915 1
    2012     1917     1916 1
    2013     1968     1916 1
    2014     1969     1916 1
    2015     1970     1917 1
    2016     1971     1917 1
    2017     1972     1917 1
    2018     1919     1918 1
    2019     1973     1918 1
    2020     1974     1918 1
    2021     1920     1919 1
    2022     1975     1919 1
    2023     1976     1919 1
    2024     1921     1920 1
    2025     1977     1920 1
    2026     1978     1920 1
    2027     1922     1921 1
    2028     1979     1921 1
    2029     1980     1921 1
    2030     1923     1922 1
    2031     1981     1922 1
    2032     1982     1922 1
    2033     1924     1923 1
    2034     1983     1923 1
    2035     1984     1923 1
    2036     1925     1924 1
    2037     1985     1924 1
    2038     1986     1924 1
    2039     1987     1925 1
    2040     1988     1925 1
    2041     1989     1925 1
    2042     1927     1926 1
    2043     1990     1926 1
    2044     1991     1926 1
    2045     1928     1927 1
    2046     1938     1927 1
    2047     1992     1927 1
    2048     1929     1928 1
    2049     1993     1928 1
    2050     1994     1928 1
    2051     1930     1929 1
    2052     1995     1929 1
    2053     1996     1929 1
    2054     1931     1930 1
    2055     1997     1930 1
    2056     1998     1930 1
    2057     1932     1931 1
    2058     1999     1931 1
    2059     2000     1931 1
    2060     1933     1932 1
    2061     2001     1932 1
    2062     2002     1932 1
    2063     1934     1933 1
    2064     2003     1933 1
    2065     2004     1933 1
    2066     1935     1934 1
    2067     2005     1934 1
    2068     2006     1934 1
    2069     1936     1935 1
    2070     2007     1935 1
    2071     2008     1935 1
    2072     1937     1936 1
    2073     2009     1936 1
    2074     2010     1936 1
    2075     2011     1937 1
    2076     2012     1937 1
    2077     2013     1937 1
    2078     1939     1938 1
    2079     2014     1938 1
    2080     2015     1938 1
    2081     1940     1939 1
    2082     2016     1939 1
    2083     2017     1939 1
    2084     1941     1940 1
    2085     2018     1940 1
    2086     2019     1940 1
    2087     1942     1941 1
    2088     2020     1941 1
    2089     2021     1941 1
    2090     1943     1942 1
    2091     2022     1942 1
    2092     2023     1942 1
    2093     1944     1943 1
    2094     2024     1943 1
    2095     2025     1943 1
    2096     1945     1944 1
    2097     2026     1944 1
    2098     2027     1944 1
    2099     2028     1945 1
    2100     2029     1945 1
    2101     2030     1945 1
    2102     2032     2031 1
    2103     2051     2031 1
    2104     2071     2031 1
    2105     2035     2031 1
    2106     2033     2032 1
    2107     2050     2032 1
    2108     2034     2033 1
    2109     2048     2033 1
    2110     2035     2034 1
    2111     2038     2034 1
    2112     2036     2035 1
    2113     2037     2036 1
    2114     2091     2036 1
    2115     2038     2037 1
    2116     2039     2037 1
    2117     2040     2039 1
    2118     2044     2039 1
    2119     2041     2040 1
    2120     2092     2040 1
    2121     2042     2041 1
    2122     2043     2042 1
    2123     2044     2043 1
    2124     2047     2043 1
    2125     2045     2044 1
    2126     2046     2045 1
    2127     2047     2046 1
    2128     2049     2048 1
    2129     2050     2049 1
    2130     2187     2049 1
    2131     2093     2050 1
    2132     2052     2051 1
    2133     2094     2051 1
    2134     2095     2051 1
    2135     2053     2052 1
    2136     2063     2052 1
    2137     2096     2052 1
    2138     2054     2053 1
    2139     2097     2053 1
    2140     2098     2053 1
    2141     2055     2054 1
    2142     2099     2054 1
    2143     2100     2054 1
    2144     2056     2055 1
    2145     2101     2055 1
    2146     2102     2055 1
    2147     2057     2056 1
    2148     2103     2056 1
    2149     2104     2056 1
    2150     2058     2057 1
    2151     2105     2057 1
    2152     2106     2057 1
    2153     2059     2058 1
    2154     2107     2058 1
    2155     2108     2058 1
    2156     2060     2059 1
    2157     2109     2059 1
    2158     2110     2059 1
    2159     2061     2060 1
    2160     2111     2060 1
    2161     2112     2060 1
    2162     2062     2061 1
    2163     2113     2061 1
    2164     2114     2061 1
    2165     2115     2062 1
    2166     2116     2062 1
    2167     2117     2062 1
    2168     2064     2063 1
    2169     2118     2063 1
    2170     2119     2063 1
    2171     2065     2064 1
    2172     2120     2064 1
    2173     2121     2064 1
    2174     2066     2065 1
    2175     2122     2065 1
    2176     2123     2065 1
    2177     2067     2066 1
    2178     2124     2066 1
    2179     2125     2066 1
    2180     2068     2067 1
    2181     2126     2067 1
    2182     2127     2067 1
    2183     2069     2068 1
    2184     2128     2068 1
    2185     2129     2068 1
    2186     2070     2069 1
    2187     2130     2069 1
    2188     2131     2069 1
    2189     2132     2070 1
    2190     2133     2070 1
    2191     2134     2070 1
    2192     2072     2071 1
    2193     2135     2071 1
    2194     2136     2071 1
    2195     2073     2072 1
    2196     2083     2072 1
    2197     2137     2072 1
    2198     2074     2073 1
    2199     2138     2073 1
    2200     2139     2073 1
    2201     2075     2074 1
    2202     2140     2074 1
    2203     2141     2074 1
    2204     2076     2075 1
    2205     2142     2075 1
    2206     2143     2075 1
    2207     2077     2076 1
    2208     2144     2076 1
    2209     2145     2076 1
    2210     2078     2077 1
    2211     2146     2077 1
    2212     2147     2077 1
    2213     2079     2078 1
    2214     2148     2078 1
    2215     2149     2078 1
    2216     2080     2079 1
    2217     2150     2079 1
    2218     2151     2079 1
    2219     2081     2080 1
    2220     2152     2080 1
    2221     2153     2080 1
    2222     2082     2081 1
    2223     2154     2081 1
    2224     2155     2081 1
    2225     2156     2082 1
    2226     2157     2082 1
    2227     2158     2082 1
    2228     2084     2083 1
    2229     2159     2083 1
    2230     2160     2083 1
    2231     2085     2084 1
    2232     2161     2084 1
    2233     2162     2084 1
    2234     2086     2085 1
    2235     2163     2085 1
    2236     2164     2085 1
    2237     2087     2086 1
    2238     2165     2086 1
    2239     2166     2086 1
    2240     2088     2087 1
    2241     2167     2087 1
    2242     2168     2087 1
    2243     2089     2088 1
    2244     2169     2088 1
    2245     2170     2088 1
    2246     2090     2089 1
    2247     2171     2089 1
    2248     2172     2089 1
    2249     2173     2090 1
    2250     2174     2090 1
    2251     2175     2090 1
    2252     2177     2176 1
    2253     2196     2176 1
    2254     2216     2176 1
    2255     2180     2176 1
    2256     2178     2177 1
    2257     2195     2177 1
    2258     2179     2178 1
    2259     2193     2178 1
    2260     2180     2179 1
    2261     2183     2179 1
    2262     2181     2180 1
    2263     2182     2181 1
    2264     2236     2181 1
    2265     2183     2182 1
    2266     2184     2182 1
    2267     2185     2184 1
    2268     2189     2184 1
    2269     2186     2185 1
    2270     2237     2185 1
    2271     2187     2186 1
    2272     2188     2187 1
    2273     2189     2188 1
    2274     2192     2188 1
    2275     2190     2189 1
    2276     2191     2190 1
    2277     2192     2191 1
    2278     2194     2193 1
    2279     2195     2194 1
    2280     2332     2194 1
    2281     2238     2195 1
    2282     2197     2196 1
    2283     2239     2196 1
    2284     2240     2196 1
    2285     2198     2197 1
    2286     2208     2197 1
    2287     2241     2197 1
    2288     2199     2198 1
    2289     2242     2198 1
    2290     2243     2198 1
    2291     2200     2199 1
    2292     2244     2199 1
    2293     2245     2199 1
    2294     2201     2200 1
    2295     2246     2200 1
    2296     2247     2200 1
    2297     2202     2201 1
    2298     2248     2201 1
    2299     2249     2201 1
    2300     2203     2202 1
    2301     2250     2202 1
    2302     2251     2202 1
    2303     2204     2203 1
    2304     2252     2203 1
    2305     2253     2203 1
    2306     2205     2204 1
    2307     2254     2204 1
    2308     2255     2204 1
    2309     2206     2205 1
    2310     2256     2205 1
    2311     2257     2205 1
    2312     2207     2206 1
    2313     2258     2206 1
    2314     2259     2206 1
    2315     2260     2207 1
    2316     2261     2207 1
    2317     2262     2207 1
    2318     2209     2208 1
    2319     2263     2208 1
    2320     2264     2208 1
    2321     2210     2209 1
    2322     2265     2209 1
    2323     2266     2209 1
    2324     2211     2210 1
    2325     2267     2210 1
    2326     2268     2210 1
    2327     2212     2211 1
    2328     2269     2211 1
    2329     2270     2211 1
    2330     2213     2212 1
    2331     2271     2212 1
    2332     2272     2212 1
    2333     2214     2213 1
    2334     2273     2213 1
    2335     2274     2213 1
    2336     2215     2214 1
    2337     2275     2214 1
    2338     2276     2214 1
    2339     2277     2215 1
    2340     2278     2215 1
    2341     2279     2215 1
    2342     2217     2216 1
    2343     2280     2216 1
    2344     2281     2216 1
    2345     2218     2217 1
    2346     2228     2217 1
    2347     2282     2217 1
    2348     2219     2218 1
    2349     2283     2218 1
    2350     2284     2218 1
    2351     2220     2219 1
    2352     2285     2219 1
    2353     2286     2219 1
    2354     2221     2220 1
    2355     2287     2220 1
    2356     2288     2220 1
    2357     2222     2221 1
    2358     2289     2221 1
    2359     2290     2221 1
    2360     2223     2222 1
    2361     2291     2222 1
    2362     2292     2222 1
    2363     2224     2223 1
    2364     2293     2223 1
    2365     2294     2223 1
    2366     2225     2224 1
    2367     2295     2224 1
    2368     2296     2224 1
    2369     2226     2225 1
    2370     2297     2225 1
    2371     2298     2225 1
    2372     2227     2226 1
    2373     2299     2226 1
    2374     2300     2226 1
    2375     2301     2227 1
    2376     2302     2227 1
    2377     2303     2227 1
    2378     2229     2228 1
    2379     2304     2228 1
    2380     2305     2228 1
    2381     2230     2229 1
    2382     2306     2229 1
    2383     2307     2229 1
    2384     2231     2230 1
    2385     2308     2230 1
    2386     2309     2230 1
    2387     2232     2231 1
    2388     2310     2231 1
    2389     2311     2231 1
    2390     2233     2232 1
    2391     2312     2232 1
    2392     2313     2232 1
    2393     2234     2233 1
    2394     2314     2233 1
    2395     2315     2233 1
    2396     2235     2234 1
    2397     2316     2234 1
    2398     2317     2234 1
    2399     2318     2235 1
    2400     2319     2235 1
    2401     2320     2235 1
    2402     2322     2321 1
    2403     2341     2321 1
    2404     2361     2321 1
    2405     2325     2321 1
    2406     2323     2322 1
    2407     2340     2322 1
    2408     2324     2323 1
    2409     2338     2323 1
    2410     2325     2324 1
    2411     2328     2324 1
    2412     2326     2325 1
    2413     2327     2326 1
    2414     2381     2326 1
    2415     2328     2327 1
    2416     2329     2327 1
    2417     2330     2329 1
    2418     2334     2329 1
    2419     2331     2330 1
    2420     2382     2330 1
    2421     2332     2331 1
    2422     2333     2332 1
    2423     2334     2333 1
    2424     2337     2333 1
    2425     2335     2334 1
    2426     2336     2335 1
    2427     2337     2336 1
    2428     2339     2338 1
    2429     2340     2339 1
    2430     2477     2339 1
    2431     2383     2340 1
    2432     2342     2341 1
    2433     2384     2341 1
    2434     2385     2341 1
    2435     2343     2342 1
    2436     2353     2342 1
    2437     2386     2342 1
    2438     2344     2343 1
    2439     2387     2343 1
    2440     2388     2343 1
    2441     2345     2344 1
    2442     2389     2344 1
    2443     2390     2344 1
    2444     2346     2345 1
    2445     2391     2345 1
    2446     2392     2345 1
    2447     2347     2346 1
    2448     2393     2346 1
    2449     2394     2346 1
    2450     2348     2347 1
    2451     2395     2347 1
    2452     2396     2347 1
    2453     2349     2348 1
    2454     2397     2348 1
    2455     2398     2348 1
    2456     2350     2349 1
    2457     2399     2349 1
    2458     2400     2349 1
    2459     2351     2350 1
    2460     2401     2350 1
    2461     2402     2350 1
    2462     2352     2351 1
    2463     2403     2351 1
    2464     2404     2351 1
    2465     2405     2352 1
    2466     2406     2352 1
    2467     2407     2352 1
    2468     2354     2353 1
    2469     2408     2353 1
    2470     2409     2353 1
    2471     2355     2354 1
    2472     2410     2354 1
    2473     2411     2354 1
    2474     2356     2355 1
    2475     2412     2355 1
    2476     2413     2355 1
    2477     2357     2356 1
    2478     2414     2356 1
    2479     2415     2356 1
    2480     2358     2357 1
    2481     2416     2357 1
    2482     2417     2357 1
    2483     2359     2358 1
    2484     2418     2358 1
    2485     2419     2358 1
    2486     2360     2359 1
    2487     2420     2359 1
    2488     2421     2359 1
    2489     2422     2360 1
    2490     2423     2360 1
    2491     2424     2360 1
    2492     2362     2361 1
    2493     2425     2361 1
    2494     2426     2361 1
    2495     2363     2362 1
    2496     2373     2362 1
    2497     2427     2362 1
    2498     2364     2363 1
    2499     2428     2363 1
    2500     2429     2363 1
    2501     2365     2364 1
    2502     2430     2364 1
    2503     2431     2364 1
    2504     2366     2365 1
    2505     2432     2365 1
    2506     2433     2365 1
    2507     2367     2366 1
    2508     2434     2366 1
    2509     2435     2366 1
    2510     2368     2367 1
    2511     2436     2367 1
    2512     2437     2367 1
    2513     2369     2368 1
    2514     2438     2368 1
    2515     2439     2368 1
    2516     2370     2369 1
    2517     2440     2369 1
    2518     2441     2369 1
    2519     2371     2370 1
    2520     2442     2370 1
    2521     2443     2370 1
    2522     2372     2371 1
    2523     2444     2371 1
    2524     2445     2371 1
    2525     2446     2372 1
    2526     2447     2372 1
    2527     2448     2372 1
    2528     2374     2373 1
    2529     2449     2373 1
    2530     2450     2373 1
    2531     2375     2374 1
    2532     2451     2374 1
    2533     2452     2374 1
    2534     2376     2375 1
    2535     2453     2375 1
    2536     2454     2375 1
    2537     2377     2376 1
    2538     2455     2376 1
    2539     2456     2376 1
    2540     2378     2377 1
    2541     2457     2377 1
    2542     2458     2377 1
    2543     2379     2378 1
    2544     2459     2378 1
    2545     2460     2378 1
    2546     2380     2379 1
    2547     2461     2379 1
    2548     2462     2379 1
    2549     2463     2380 1
    2550     2464     2380 1
    2551     2465     2380 1
    2552     2467     2466 1
    2553     2486     2466 1
    2554     2506     2466 1
    2555     2470     2466 1
    2556     2468     2467 1
    2557     2485     2467 1
    2558     2469     2468 1
    2559     2483     2468 1
    2560     2470     2469 1
    2561     2473     2469 1
    2562     2471     2470 1
    2563     2472     2471 1
    2564     2526     2471 1
    2565     2473     2472 1
    2566     2474     2472 1
    2567     2475     2474 1
    2568     2479     2474 1
    2569     2476     2475 1
    2570     2527     2475 1
    2571     2477     2476 1
    2572     2478     2477 1
    2573     2479     2478 1
    2574     2482     2478 1
    2575     2480     2479 1
    2576     2481     2480 1
    2577     2482     2481 1
    2578     2484     2483 1
    2579     2485     2484 1
    2580     2622     2484 1
    2581     2528     2485 1
    2582     2487     2486 1
    2583     2529     2486 1
    2584     2530     2486 1
    2585     2488     2487 1
    2586     2498     2487 1
    2587     2531     2487 1
    2588     2489     2488 1
    2589     2532     2488 1
    2590     2533     2488 1
    2591     2490     2489 1
    2592     2534     2489 1
    2593     2535     2489 1
    2594     2491     2490 1
    2595     2536     2490 1
    2596     2537     2490 1
    2597     2492     2491 1
    2598     2538     2491 1
    2599     2539     2491 1
    2600     2493     2492 1
    2601     2540     2492 1
    2602     2541     2492 1
    2603     2494     2493 1
    2604     2542     2493 1
    2605     2543     2493 1
    2606     2495     2494 1
    2607     2544     2494 1
    2608     2545     2494 1
    2609     2496     2495 1
    2610     2546     2495 1
    2611     2547     2495 1
    2612     2497     2496 1
    2613     2548     2496 1
    2614     2549     2496 1
    2615     2550     2497 1
    2616     2551     2497 1
    2617     2552     2497 1
    2618     2499     2498 1
    2619     2553     2498 1
    2620     2554     2498 1
    2621     2500     2499 1
    2622     2555     2499 1
    2623     2556     2499 1
    2624     2501     2500 1
    2625     2557     2500 1
    2626     2558     2500 1
    2627     2502     2501 1
    2628     2559     2501 1
    2629     2560     2501 1
    2630     2503     2502 1
    2631     2561     2502 1
    2632     2562     2502 1
    2633     2504     2503 1
    2634     2563     2503 1
    2635     2564     2503 1
    2636     2505     2504 1
    2637     2565     2504 1
    2638     2566     2504 1
    2639     2567     2505 1
    2640     2568     2505 1
    2641     2569     2505 1
    2642     2507     2506 1
    2643     2570     2506 1
    2644     2571     2506 1
    2645     2508     2507 1
    2646     2518     2507 1
    2647     2572     2507 1
    2648     2509     2508 1
    2649     2573     2508 1
    2650     2574     2508 1
    2651     2510     2509 1
    2652     2575     2509 1
    2653     2576     2509 1
    2654     2511     2510 1
    2655     2577     2510 1
    2656     2578     2510 1
    2657     2512     2511 1
    2658     2579     2511 1
    2659     2580     2511 1
    2660     2513     2512 1
    2661     2581     2512 1
    2662     2582     2512 1
    2663     2514     2513 1
    2664     2583     2513 1
    2665     2584     2513 1
    2666     2515     2514 1
    2667     2585     2514 1
    2668     2586     2514 1
    2669     2516     2515 1
    2670     2587     2515 1
    2671     2588     2515 1
    2672     2517     2516 1
    2673     2589     2516 1
    2674     2590     2516 1
    2675     2591     2517 1
    2676     2592     2517 1
    2677     2593     2517 1
    2678     2519     2518 1
    2679     2594     2518 1
    2680     2595     2518 1
    2681     2520     2519 1
    2682     2596     2519 1
    2683     2597     2519 1
    2684     2521     2520 1
    2685     2598     2520 1
    2686     2599     2520 1
    2687     2522     2521 1
    2688     2600     2521 1
    2689     2601     2521 1
    2690     2523     2522 1
    2691     2602     2522 1
    2692     2603     2522 1
    2693     2524     2523 1
    2694     2604     2523 1
    2695     2605     2523 1
    2696     2525     2524 1
    2697     2606     2524 1
    2698     2607     2524 1
    2699     2608     2525 1
    2700     2609     2525 1
    2701     2610     2525 1
    2702     2612     2611 1
    2703     2631     2611 1
    2704     2651     2611 1
    2705     2615     2611 1
    2706     2613     2612 1
    2707     2630     2612 1
    2708     2614     2613 1
    2709     2628     2613 1
    2710     2615     2614 1
    2711     2618     2614 1
    2712     2616     2615 1
    2713     2617     2616 1
    2714     2671     2616 1
    2715     2618     2617 1
    2716     2619     2617 1
    2717     2620     2619 1
    2718     2624     2619 1
    2719     2621     2620 1
    2720     2672     2620 1
    2721     2622     2621 1
    2722     2623     2622 1
    2723     2624     2623 1
    2724     2627     2623 1
    2725     2625     2624 1
    2726     2626     2625 1
    2727     2627     2626 1
    2728     2629     2628 1
    2729     2630     2629 1
    2730     2767     2629 1
    2731     2673     2630 1
    2732     2632     2631 1
    2733     2674     2631 1
    2734     2675     2631 1
    2735     2633     2632 1
    2736     2643     2632 1
    2737     2676     2632 1
    2738     2634     2633 1
    2739     2677     2633 1
    2740     2678     2633 1
    2741     2635     2634 1
    2742     2679     2634 1
    2743     2680     2634 1
    2744     2636     2635 1
    2745     2681     2635 1
    2746     2682     2635 1
    2747     2637     2636 1
    2748     2683     2636 1
    2749     2684     2636 1
    2750     2638     2637 1
    2751     2685     2637 1
    2752     2686     2637 1
    2753     2639     2638 1
    2754     2687     2638 1
    2755     2688     2638 1
    2756     2640     2639 1
    2757     2689     2639 1
    2758     2690     2639 1
    2759     2641     2640 1
    2760     2691     2640 1
    2761     2692     2640 1
    2762     2642     2641 1
    2763     2693     2641 1
    2764     2694     2641 1
    2765     2695     2642 1
    2766     2696     2642 1
    2767     2697     2642 1
    2768     2644     2643 1
    2769     2698     2643 1
    2770     2699     2643 1
    2771     2645     2644 1
    2772     2700     2644 1
    2773     2701     2644 1
    2774     2646     2645 1
    2775     2702     2645 1
    2776     2703     2645 1
    2777     2647     2646 1
    2778     2704     2646 1
    2779     2705     2646 1
    2780     2648     2647 1
    2781     2706     2647 1
    2782     2707     2647 1
    2783     2649     2648 1
    2784     2708     2648 1
    2785     2709     2648 1
    2786     2650     2649 1
    2787     2710     2649 1
    2788     2711     2649 1
    2789     2712     2650 1
    2790     2713     2650 1
    2791     2714     2650 1
    2792     2652     2651 1
    2793     2715     2651 1
    2794     2716     2651 1
    2795     2653     2652 1
    2796     2663     2652 1
    2797     2717     2652 1
    2798     2654     2653 1
    2799     2718     2653 1
    2800     2719     2653 1
    2801     2655     2654 1
    2802     2720     2654 1
    2803     2721     2654 1
    2804     2656     2655 1
    2805     2722     2655 1
    2806     2723     2655 1
    2807     2657     2656 1
    2808     2724     2656 1
    2809     2725     2656 1
    2810     2658     2657 1
    2811     2726     2657 1
    2812     2727     2657 1
    2813     2659     2658 1
    2814     2728     2658 1
    2815     2729     2658 1
    2816     2660     2659 1
    2817     2730     2659 1
    2818     2731     2659 1
    2819     2661     2660 1
    2820     2732     2660 1
    2821     2733     2660 1
    2822     2662     2661 1
    2823     2734     2661 1
    2824     2735     2661 1
    2825     2736     2662 1
    2826     2737     2662 1
    2827     2738     2662 1
    2828     2664     2663 1
    2829     2739     2663 1
    2830     2740     2663 1
    2831     2665     2664 1
    2832     2741     2664 1
    2833     2742     2664 1
    2834     2666     2665 1
    2835     2743     2665 1
    2836     2744     2665 1
    2837     2667     2666 1
    2838     2745     2666 1
    2839     2746     2666 1
    2840     2668     2667 1
    2841     2747     2667 1
    2842     2748     2667 1
    2843     2669     2668 1
    2844     2749     2668 1
    2845     2750     2668 1
    2846     2670     2669 1
    2847     2751     2669 1
    2848     2752     2669 1
    2849     2753     2670 1
    2850     2754     2670 1
    2851     2755     2670 1
    2852     2757     2756 1
    2853     2776     2756 1
    2854     2796     2756 1
    2855     2760     2756 1
    2856     2758     2757 1
    2857     2775     2757 1
    2858     2759     2758 1
    2859     2773     2758 1
    2860     2760     2759 1
    2861     2763     2759 1
    2862     2761     2760 1
    2863     2762     2761 1
    2864     2816     2761 1
    2865     2763     2762 1
    2866     2764     2762 1
    2867     2765     2764 1
    2868     2769     2764 1
    2869     2766     2765 1
    2870     2817     2765 1
    2871     2767     2766 1
    2872     2768     2767 1
    2873     2769     2768 1
    2874     2772     2768 1
    2875     2770     2769 1
    2876     2771     2770 1
    2877     2772     2771 1
    2878     2774     2773 1
    2879     2775     2774 1
    2880     2912     2774 1
    2881     2818     2775 1
    2882     2777     2776 1
    2883     2819     2776 1
    2884     2820     2776 1
    2885     2778     2777 1
    2886     2788     2777 1
    2887     2821     2777 1
    2888     2779     2778 1
    2889     2822     2778 1
    2890     2823     2778 1
    2891     2780     2779 1
    2892     2824     2779 1
    2893     2825     2779 1
    2894     2781     2780 1
    2895     2826     2780 1
    2896     2827     2780 1
    2897     2782     2781 1
    2898     2828     2781 1
    2899     2829     2781 1
    2900     2783     2782 1
    2901     2830     2782 1
    2902     2831     2782 1
    2903     2784     2783 1
    2904     2832     2783 1
    2905     2833     2783 1
    2906     2785     2784 1
    2907     2834     2784 1
    2908     2835     2784 1
    2909     2786     2785 1
    2910     2836     2785 1
    2911     2837     2785 1
    2912     2787     2786 1
    2913     2838     2786 1
    2914     2839     2786 1
    2915     2840     2787 1
    2916     2841     2787 1
    2917     2842     2787 1
    2918     2789     2788 1
    2919     2843     2788 1
    2920     2844     2788 1
    2921     2790     2789 1
    2922     2845     2789 1
    2923     2846     2789 1
    2924     2791     2790 1
    2925     2847     2790 1
    2926     2848     2790 1
    2927     2792     2791 1
    2928     2849     2791 1
    2929     2850     2791 1
    2930     2793     2792 1
    2931     2851     2792 1
    2932     2852     2792 1
    2933     2794     2793 1
    2934     2853     2793 1
    2935     2854     2793 1
    2936     2795     2794 1
    2937     2855     2794 1
    2938     2856     2794 1
    2939     2857     2795 1
    2940     2858     2795 1
    2941     2859     2795 1
    2942     2797     2796 1
    2943     2860     2796 1
    2944     2861     2796 1
    2945     2798     2797 1
    2946     2808     2797 1
    2947     2862     2797 1
    2948     2799     2798 1
    2949     2863     2798 1
    2950     2864     2798 1
    2951     2800     2799 1
    2952     2865     2799 1
    2953     2866     2799 1
    2954     2801     2800 1
    2955     2867     2800 1
    2956     2868     2800 1
    2957     2802     2801 1
    2958     2869     2801 1
    2959     2870     2801 1
    2960     2803     2802 1
    2961     2871     2802 1
    2962     2872     2802 1
    2963     2804     2803 1
    2964     2873     2803 1
    2965     2874     2803 1
    2966     2805     2804 1
    2967     2875     2804 1
    2968     2876     2804 1
    2969     2806     2805 1
    2970     2877     2805 1
    2971     2878     2805 1
    2972     2807     2806 1
    2973     2879     2806 1
    2974     2880     2806 1
    2975     2881     2807 1
    2976     2882     2807 1
    2977     2883     2807 1
    2978     2809     2808 1
    2979     2884     2808 1
    2980     2885     2808 1
    2981     2810     2809 1
    2982     2886     2809 1
    2983     2887     2809 1
    2984     2811     2810 1
    2985     2888     2810 1
    2986     2889     2810 1
    2987     2812     2811 1
    2988     2890     2811 1
    2989     2891     2811 1
    2990     2813     2812 1
    2991     2892     2812 1
    2992     2893     2812 1
    2993     2814     2813 1
    2994     2894     2813 1
    2995     2895     2813 1
    2996     2815     2814 1
    2997     2896     2814 1
    2998     2897     2814 1
    2999     2898     2815 1
    3000     2899     2815 1
    3001     2900     2815 1
    3002     2902     2901 1
    3003     2921     2901 1
    3004     2941     2901 1
    3005     2905     2901 1
    3006     2903     2902 1
    3007     2920     2902 1
    3008     2904     2903 1
    3009     2918     2903 1
    3010     2905     2904 1
    3011     2908     2904 1
    3012     2906     2905 1
    3013     2907     2906 1
    3014     2961     2906 1
    3015     2908     2907 1
    3016     2909     2907 1
    3017     2910     2909 1
    3018     2914     2909 1
    3019     2911     2910 1
    3020     2962     2910 1
    3021     2912     2911 1
    3022     2913     2912 1
    3023     2914     2913 1
    3024     2917     2913 1
    3025     2915     2914 1
    3026     2916     2915 1
    3027     2917     2916 1
    3028     2919     2918 1
    3029     2920     2919 1
    3030     3057     2919 1
    3031     2963     2920 1
    3032     2922     2921 1
    3033     2964     2921 1
    3034     2965     2921 1
    3035     2923     2922 1
    3036     2933     2922 1
    3037     2966     2922 1
    3038     2924     2923 1
    3039     2967     2923 1
    3040     2968     2923 1
    3041     2925     2924 1
    3042     2969     2924 1
    3043     2970     2924 1
    3044     2926     2925 1
    3045     2971     2925 1
    3046     2972     2925 1
    3047     2927     2926 1
    3048     2973     2926 1
    3049     2974     2926 1
    3050     2928     2927 1
    3051     2975     2927 1
    3052     2976     2927 1
    3053     2929     2928 1
    3054     2977     2928 1
    3055     2978     2928 1
    3056     2930     2929 1
    3057     2979     2929 1
    3058     2980     2929 1
    3059     2931     2930 1
    3060     2981     2930 1
    3061     2982     2930 1
    3062     2932     2931 1
    3063     2983     2931 1
    3064     2984     2931 1
    3065     2985     2932 1
    3066     2986     2932 1
    3067     2987     2932 1
    3068     2934     2933 1
    3069     2988     2933 1
    3070     2989     2933 1
    3071     2935     2934 1
    3072     2990     2934 1
    3073     2991     2934 1
    3074     2936     2935 1
    3075     2992     2935 1
    3076     2993     2935 1
    3077     2937     2936 1
    3078     2994     2936 1
    3079     2995     2936 1
    3080     2938     2937 1
    3081     2996     2937 1
    3082     2997     2937 1
    3083     2939     2938 1
    3084     2998     2938 1
    3085     2999     2938 1
    3086     2940     2939 1
    3087     3000     2939 1
    3088     3001     2939 1
    3089     3002     2940 1
    3090     3003     2940 1
    3091     3004     2940 1
    3092     2942     2941 1
    3093     3005     2941 1
    3094     3006     2941 1
    3095     2943     2942 1
    3096     2953     2942 1
    3097     3007     2942 1
    3098     2944     2943 1
    3099     3008     2943 1
    3100     3009     2943 1
    3101     2945     2944 1
    3102     3010     2944 1
    3103     3011     2944 1
    3104     2946     2945 1
    3105     3012     2945 1
    3106     3013     2945 1
    3107     2947     2946 1
    3108     3014     2946 1
    3109     3015     2946 1
    3110     2948     2947 1
    3111     3016     2947 1
    3112     3017     2947 1
    3113     2949     2948 1
    3114     3018     2948 1
    3115     3019     2948 1
    3116     2950     2949 1
    3117     3020     2949 1
    3118     3021     2949 1
    3119     2951     2950 1
    3120     3022     2950 1
    3121     3023     2950 1
    3122     2952     2951 1
    3123     3024     2951 1
    3124     3025     2951 1
    3125     3026     2952 1
    3126     3027     2952 1
    3127     3028     2952 1
    3128     2954     2953 1
    3129     3029     2953 1
    3130     3030     2953 1
    3131     2955     2954 1
    3132     3031     2954 1
    3133     3032     2954 1
    3134     2956     2955 1
    3135     3033     2955 1
    3136     3034     2955 1
    3137     2957     2956 1
    3138     3035     2956 1
    3139     3036     2956 1
    3140     2958     2957 1
    3141     3037     2957 1
    3142     3038     2957 1
    3143     2959     2958 1
    3144     3039     2958 1
    3145     3040     2958 1
    3146     2960     2959 1
    3147     3041     2959 1
    3148     3042     2959 1
    3149     3043     2960 1
    3150     3044     2960 1
    3151     3045     2960 1
    3152     3047     3046 1
    3153     3066     3046 1
    3154     3086     3046 1
    3155     3050     3046 1
    3156     3048     3047 1
    3157     3065     3047 1
    3158     3049     3048 1
    3159     3063     3048 1
    3160     3050     3049 1
    3161     3053     3049 1
    3162     3051     3050 1
    3163     3052     3051 1
    3164     3106     3051 1
    3165     3053     3052 1
    3166     3054     3052 1
    3167     3055     3054 1
    3168     3059     3054 1
    3169     3056     3055 1
    3170     3107     3055 1
    3171     3057     3056 1
    3172     3058     3057 1
    3173     3059     3058 1
    3174     3062     3058 1
    3175     3060     3059 1
    3176     3061     3060 1
    3177     3062     3061 1
    3178     3064     3063 1
    3179     3065     3064 1
    3180     3202     3064 1
    3181     3108     3065 1
    3182     3067     3066 1
    3183     3109     3066 1
    3184     3110     3066 1
    3185     3068     3067 1
    3186     3078     3067 1
    3187     3111     3067 1
    3188     3069     3068 1
    3189     3112     3068 1
    3190     3113     3068 1
    3191     3070     3069 1
    3192     3114     3069 1
    3193     3115     3069 1
    3194     3071     3070 1
    3195     3116     3070 1
    3196     3117     3070 1
    3197     3072     3071 1
    3198     3118     3071 1
    3199     3119     3071 1
    3200     3073     3072 1
    3201     3120     3072 1
    3202     3121     3072 1
    3203     3074     3073 1
    3204     3122     3073 1
    3205     3123     3073 1
    3206     3075     3074 1
    3207     3124     3074 1
    3208     3125     3074 1
    3209     3076     3075 1
    3210     3126     3075 1
    3211     3127     3075 1
    3212     3077     3076 1
    3213     3128     3076 1
    3214     3129     3076 1
    3215     3130     3077 1
    3216     3131     3077 1
    3217     3132     3077 1
    3218     3079     3078 1
    3219     3133     3078 1
    3220     3134     3078 1
    3221     3080     3079 1
    3222     3135     3079 1
    3223     3136     3079 1
    3224     3081     3080 1
    3225     3137     3080 1
    3226     3138     3080 1
    3227     3082     3081 1
    3228     3139     3081 1
    3229     3140     3081 1
    3230     3083     3082 1
    3231     3141     3082 1
    3232     3142     3082 1
    3233     3084     3083 1
    3234     3143     3083 1
    3235     3144     3083 1
    3236     3085     3084 1
    3237     3145     3084 1
    3238     3146     3084 1
    3239     3147     3085 1
    3240     3148     3085 1
    3241     3149     3085 1
    3242     3087     3086 1
    3243     3150     3086 1
    3244     3151     3086 1
    3245     3088     3087 1
    3246     3098     3087 1
    3247     3152     3087 1
    3248     3089     3088 1
    3249     3153     3088 1
    3250     3154     3088 1
    3251     3090     3089 1
    3252     3155     3089 1
    3253     3156     3089 1
    3254     3091     3090 1
    3255     3157     3090 1
    3256     3158     3090 1
    3257     3092     3091 1
    3258     3159     3091 1
    3259     3160     3091 1
    3260     3093     3092 1
    3261     3161     3092 1
    3262     3162     3092 1
    3263     3094     3093 1
    3264     3163     3093 1
    3265     3164     3093 1
    3266     3095     3094 1
    3267     3165     3094 1
    3268     3166     3094 1
    3269     3096     3095 1
    3270     3167     3095 1
    3271     3168     3095 1
    3272     3097     3096 1
    3273     3169     3096 1
    3274     3170     3096 1
    3275     3171     3097 1
    3276     3172     3097 1
    3277     3173     3097 1
    3278     3099     3098 1
    3279     3174     3098 1
    3280     3175     3098 1
    3281     3100     3099 1
    3282     3176     3099 1
    3283     3177     3099 1
    3284     3101     3100 1
    3285     3178     3100 1
    3286     3179     3100 1
    3287     3102     3101 1
    3288     3180     3101 1
    3289     3181     3101 1
    3290     3103     3102 1
    3291     3182     3102 1
    3292     3183     3102 1
    3293     3104     3103 1
    3294     3184     3103 1
    3295     3185     3103 1
    3296     3105     3104 1
    3297     3186     3104 1
    3298     3187     3104 1
    3299     3188     3105 1
    3300     3189     3105 1
    3301     3190     3105 1
    3302     3192     3191 1
    3303     3211     3191 1
    3304     3231     3191 1
    3305     3195     3191 1
    3306     3193     3192 1
    3307     3210     3192 1
    3308     3194     3193 1
    3309     3208     3193 1
    3310     3195     3194 1
    3311     3198     3194 1
    3312     3196     3195 1
    3313     3197     3196 1
    3314     3251     3196 1
    3315     3198     3197 1
    3316     3199     3197 1
    3317     3200     3199 1
    3318     3204     3199 1
    3319     3201     3200 1
    3320     3252     3200 1
    3321     3202     3201 1
    3322     3203     3202 1
    3323     3204     3203 1
    3324     3207     3203 1
    3325     3205     3204 1
    3326     3206     3205 1
    3327     3207     3206 1
    3328     3209     3208 1
    3329     3210     3209 1
    3330     3347     3209 1
    3331     3253     3210 1
    3332     3212     3211 1
    3333     3254     3211 1
    3334     3255     3211 1
    3335     3213     3212 1
    3336     3223     3212 1
    3337     3256     3212 1
    3338     3214     3213 1
    3339     3257     3213 1
    3340     3258     3213 1
    3341     3215     3214 1
    3342     3259     3214 1
    3343     3260     3214 1
    3344     3216     3215 1
    3345     3261     3215 1
    3346     3262     3215 1
    3347     3217     3216 1
    3348     3263     3216 1
    3349     3264     3216 1
    3350     3218     3217 1
    3351     3265     3217 1
    3352     3266     3217 1
    3353     3219     3218 1
    3354     3267     3218 1
    3355     3268     3218 1
    3356     3220     3219 1
    3357     3269     3219 1
    3358     3270     3219 1
    3359     3221     3220 1
    3360     3271     3220 1
    3361     3272     3220 1
    3362     3222     3221 1
    3363     3273     3221 1
    3364     3274     3221 1
    3365     3275     3222 1
    3366     3276     3222 1
    3367     3277     3222 1
    3368     3224     3223 1
    3369     3278     3223 1
    3370     3279     3223 1
    3371     3225     3224 1
    3372     3280     3224 1
    3373     3281     3224 1
    3374     3226     3225 1
    3375     3282     3225 1
    3376     3283     3225 1
    3377     3227     3226 1
    3378     3284     3226 1
    3379     3285     3226 1
    3380     3228     3227 1
    3381     3286     3227 1
    3382     3287     3227 1
    3383     3229     3228 1
    3384     3288     3228 1
    3385     3289     3228 1
    3386     3230     3229 1
    3387     3290     3229 1
    3388     3291     3229 1
    3389     3292     3230 1
    3390     3293     3230 1
    3391     3294     3230 1
    3392     3232     3231 1
    3393     3295     3231 1
    3394     3296     3231 1
    3395     3233     3232 1
    3396     3243     3232 1
    3397     3297     3232 1
    3398     3234     3233 1
    3399     3298     3233 1
    3400     3299     3233 1
    3401     3235     3234 1
    3402     3300     3234 1
    3403     3301     3234 1
    3404     3236     3235 1
    3405     3302     3235 1
    3406     3303     3235 1
    3407     3237     3236 1
    3408     3304     3236 1
    3409     3305     3236 1
    3410     3238     3237 1
    3411     3306     3237 1
    3412     3307     3237 1
    3413     3239     3238 1
    3414     3308     3238 1
    3415     3309     3238 1
    3416     3240     3239 1
    3417     3310     3239 1
    3418     3311     3239 1
    3419     3241     3240 1
    3420     3312     3240 1
    3421     3313     3240 1
    3422     3242     3241 1
    3423     3314     3241 1
    3424     3315     3241 1
    3425     3316     3242 1
    3426     3317     3242 1
    3427     3318     3242 1
    3428     3244     3243 1
    3429     3319     3243 1
    3430     3320     3243 1
    3431     3245     3244 1
    3432     3321     3244 1
    3433     3322     3244 1
    3434     3246     3245 1
    3435     3323     3245 1
    3436     3324     3245 1
    3437     3247     3246 1
    3438     3325     3246 1
    3439     3326     3246 1
    3440     3248     3247 1
    3441     3327     3247 1
    3442     3328     3247 1
    3443     3249     3248 1
    3444     3329     3248 1
    3445     3330     3248 1
    3446     3250     3249 1
    3447     3331     3249 1
    3448     3332     3249 1
    3449     3333     3250 1
    3450     3334     3250 1
    3451     3335     3250 1
    3452     3337     3336 1
    3453     3356     3336 1
    3454     3376     3336 1
    3455     3340     3336 1
    3456     3338     3337 1
    3457     3355     3337 1
    3458     3339     3338 1
    3459     3353     3338 1
    3460     3340     3339 1
    3461     3343     3339 1
    3462     3341     3340 1
    3463     3342     3341 1
    3464     3396     3341 1
    3465     3343     3342 1
    3466     3344     3342 1
    3467     3345     3344 1
    3468     3349     3344 1
    3469     3346     3345 1
    3470     3397     3345 1
    3471     3347     3346 1
    3472     3348     3347 1
    3473     3349     3348 1
    3474     3352     3348 1
    3475     3350     3349 1
    3476     3351     3350 1
    3477     3352     3351 1
    3478     3354     3353 1
    3479     3355     3354 1
    3480     3492     3354 1
    3481     3398     3355 1
    3482     3357     3356 1
    3483     3399     3356 1
    3484     3400     3356 1
    3485     3358     3357 1
    3486     3368     3357 1
    3487     3401     3357 1
    3488     3359     3358 1
    3489     3402     3358 1
    3490     3403     3358 1
    3491     3360     3359 1
    3492     3404     3359 1
    3493     3405     3359 1
    3494     3361     3360 1
    3495     3406     3360 1
    3496     3407     3360 1
    3497     3362     3361 1
    3498     3408     3361 1
    3499     3409     3361 1
    3500     3363     3362 1
    3501     3410     3362 1
    3502     3411     3362 1
    3503     3364     3363 1
    3504     3412     3363 1
    3505     3413     3363 1
    3506     3365     3364 1
    3507     3414     3364 1
    3508     3415     3364 1
    3509     3366     3365 1
    3510     3416     3365 1
    3511     3417     3365 1
    3512     3367     3366 1
    3513     3418     3366 1
    3514     3419     3366 1
    3515     3420     3367 1
    3516     3421     3367 1
    3517     3422     3367 1
    3518     3369     3368 1
    3519     3423     3368 1
    3520     3424     3368 1
    3521     3370     3369 1
    3522     3425     3369 1
    3523     3426     3369 1
    3524     3371     3370 1
    3525     3427     3370 1
    3526     3428     3370 1
    3527     3372     3371 1
    3528     3429     3371 1
    3529     3430     3371 1
    3530     3373     3372 1
    3531     3431     3372 1
    3532     3432     3372 1
    3533     3374     3373 1
    3534     3433     3373 1
    3535     3434     3373 1
    3536     3375     3374 1
    3537     3435     3374 1
    3538     3436     3374 1
    3539     3437     3375 1
    3540     3438     3375 1
    3541     3439     3375 1
    3542     3377     3376 1
    3543     3440     3376 1
    3544     3441     3376 1
    3545     3378     3377 1
    3546     3388     3377 1
    3547     3442     3377 1
    3548     3379     3378 1
    3549     3443     3378 1
    3550     3444     3378 1
    3551     3380     3379 1
    3552     3445     3379 1
    3553     3446     3379 1
    3554     3381     3380 1
    3555     3447     3380 1
    3556     3448     3380 1
    3557     3382     3381 1
    3558     3449     3381 1
    3559     3450     3381 1
    3560     3383     3382 1
    3561     3451     3382 1
    3562     3452     3382 1
    3563     3384     3383 1
    3564     3453     3383 1
    3565     3454     3383 1
    3566     3385     3384 1
    3567     3455     3384 1
    3568     3456     3384 1
    3569     3386     3385 1
    3570     3457     3385 1
    3571     3458     3385 1
    3572     3387     3386 1
    3573     3459     3386 1
    3574     3460     3386 1
    3575     3461     3387 1
    3576     3462     3387 1
    3577     3463     3387 1
    3578     3389     3388 1
    3579     3464     3388 1
    3580     3465     3388 1
    3581     3390     3389 1
    3582     3466     3389 1
    3583     3467     3389 1
    3584     3391     3390 1
    3585     3468     3390 1
    3586     3469     3390 1
    3587     3392     3391 1
    3588     3470     3391 1
    3589     3471     3391 1
    3590     3393     3392 1
    3591     3472     3392 1
    3592     3473     3392 1
    3593     3394     3393 1
    3594     3474     3393 1
    3595     3475     3393 1
    3596     3395     3394 1
    3597     3476     3394 1
    3598     3477     3394 1
    3599     3478     3395 1
    3600     3479     3395 1
    3601     3480     3395 1
    3602     3482     3481 1
    3603     3501     3481 1
    3604     3521     3481 1
    3605     3485     3481 1
    3606     3483     3482 1
    3607     3500     3482 1
    3608     3484     3483 1
    3609     3498     3483 1
    3610     3485     3484 1
    3611     3488     3484 1
    3612     3486     3485 1
    3613     3487     3486 1
    3614     3541     3486 1
    3615     3488     3487 1
    3616     3489     3487 1
    3617     3490     3489 1
    3618     3494     3489 1
    3619     3491     3490 1
    3620     3542     3490 1
    3621     3492     3491 1
    3622     3493     3492 1
    3623     3494     3493 1
    3624     3497     3493 1
    3625     3495     3494 1
    3626     3496     3495 1
    3627     3497     3496 1
    3628     3499     3498 1
    3629     3500     3499 1
    3630     3637     3499 1
    3631     3543     3500 1
    3632     3502     3501 1
    3633     3544     3501 1
    3634     3545     3501 1
    3635     3503     3502 1
    3636     3513     3502 1
    3637     3546     3502 1
    3638     3504     3503 1
    3639     3547     3503 1
    3640     3548     3503 1
    3641     3505     3504 1
    3642     3549     3504 1
    3643     3550     3504 1
    3644     3506     3505 1
    3645     3551     3505 1
    3646     3552     3505 1
    3647     3507     3506 1
    3648     3553     3506 1
    3649     3554     3506 1
    3650     3508     3507 1
    3651     3555     3507 1
    3652     3556     3507 1
    3653     3509     3508 1
    3654     3557     3508 1
    3655     3558     3508 1
    3656     3510     3509 1
    3657     3559     3509 1
    3658     3560     3509 1
    3659     3511     3510 1
    3660     3561     3510 1
    3661     3562     3510 1
    3662     3512     3511 1
    3663     3563     3511 1
    3664     3564     3511 1
    3665     3565     3512 1
    3666     3566     3512 1
    3667     3567     3512 1
    3668     3514     3513 1
    3669     3568     3513 1
    3670     3569     3513 1
    3671     3515     3514 1
    3672     3570     3514 1
    3673     3571     3514 1
    3674     3516     3515 1
    3675     3572     3515 1
    3676     3573     3515 1
    3677     3517     3516 1
    3678     3574     3516 1
    3679     3575     3516 1
    3680     3518     3517 1
    3681     3576     3517 1
    3682     3577     3517 1
    3683     3519     3518 1
    3684     3578     3518 1
    3685     3579     3518 1
    3686     3520     3519 1
    3687     3580     3519 1
    3688     3581     3519 1
    3689     3582     3520 1
    3690     3583     3520 1
    3691     3584     3520 1
    3692     3522     3521 1
    3693     3585     3521 1
    3694     3586     3521 1
    3695     3523     3522 1
    3696     3533     3522 1
    3697     3587     3522 1
    3698     3524     3523 1
    3699     3588     3523 1
    3700     3589     3523 1
    3701     3525     3524 1
    3702     3590     3524 1
    3703     3591     3524 1
    3704     3526     3525 1
    3705     3592     3525 1
    3706     3593     3525 1
    3707     3527     3526 1
    3708     3594     3526 1
    3709     3595     3526 1
    3710     3528     3527 1
    3711     3596     3527 1
    3712     3597     3527 1
    3713     3529     3528 1
    3714     3598     3528 1
    3715     3599     3528 1
    3716     3530     3529 1
    3717     3600     3529 1
    3718     3601     3529 1
    3719     3531     3530 1
    3720     3602     3530 1
    3721     3603     3530 1
    3722     3532     3531 1
    3723     3604     3531 1
    3724     3605     3531 1
    3725     3606     3532 1
    3726     3607     3532 1
    3727     3608     3532 1
    3728     3534     3533 1
    3729     3609     3533 1
    3730     3610     3533 1
    3731     3535     3534 1
    3732     3611     3534 1
    3733     3612     3534 1
    3734     3536     3535 1
    3735     3613     3535 1
    3736     3614     3535 1
    3737     3537     3536 1
    3738     3615     3536 1
    3739     3616     3536 1
    3740     3538     3537 1
    3741     3617     3537 1
    3742     3618     3537 1
    3743     3539     3538 1
    3744     3619     3538 1
    3745     3620     3538 1
    3746     3540     3539 1
    3747     3621     3539 1
    3748     3622     3539 1
    3749     3623     3540 1
    3750     3624     3540 1
    3751     3625     3540 1
    3752     3627     3626 1
    3753     3646     3626 1
    3754     3666     3626 1
    3755     3630     3626 1
    3756     3628     3627 1
    3757     3645     3627 1
    3758     3629     3628 1
    3759     3643     3628 1
    3760     3630     3629 1
    3761     3633     3629 1
    3762     3631     3630 1
    3763     3632     3631 1
    3764     3686     3631 1
    3765     3633     3632 1
    3766     3634     3632 1
    3767     3635     3634 1
    3768     3639     3634 1
    3769     3636     3635 1
    3770     3687     3635 1
    3771     3637     3636 1
    3772     3638     3637 1
    3773     3639     3638 1
    3774     3642     3638 1
    3775     3640     3639 1
    3776     3641     3640 1
    3777     3642     3641 1
    3778     3644     3643 1
    3779     3645     3644 1
    3780     3782     3644 1
    3781     3688     3645 1
    3782     3647     3646 1
    3783     3689     3646 1
    3784     3690     3646 1
    3785     3648     3647 1
    3786     3658     3647 1
    3787     3691     3647 1
    3788     3649     3648 1
    3789     3692     3648 1
    3790     3693     3648 1
    3791     3650     3649 1
    3792     3694     3649 1
    3793     3695     3649 1
    3794     3651     3650 1
    3795     3696     3650 1
    3796     3697     3650 1
    3797     3652     3651 1
    3798     3698     3651 1
    3799     3699     3651 1
    3800     3653     3652 1
    3801     3700     3652 1
    3802     3701     3652 1
    3803     3654     3653 1
    3804     3702     3653 1
    3805     3703     3653 1
    3806     3655     3654 1
    3807     3704     3654 1
    3808     3705     3654 1
    3809     3656     3655 1
    3810     3706     3655 1
    3811     3707     3655 1
    3812     3657     3656 1
    3813     3708     3656 1
    3814     3709     3656 1
    3815     3710     3657 1
    3816     3711     3657 1
    3817     3712     3657 1
    3818     3659     3658 1
    3819     3713     3658 1
    3820     3714     3658 1
    3821     3660     3659 1
    3822     3715     3659 1
    3823     3716     3659 1
    3824     3661     3660 1
    3825     3717     3660 1
    3826     3718     3660 1
    3827     3662     3661 1
    3828     3719     3661 1
    3829     3720     3661 1
    3830     3663     3662 1
    3831     3721     3662 1
    3832     3722     3662 1
    3833     3664     3663 1
    3834     3723     3663 1
    3835     3724     3663 1
    3836     3665     3664 1
    3837     3725     3664 1
    3838     3726     3664 1
    3839     3727     3665 1
    3840     3728     3665 1
    3841     3729     3665 1
    3842     3667     3666 1
    3843     3730     3666 1
    3844     3731     3666 1
    3845     3668     3667 1
    3846     3678     3667 1
    3847     3732     3667 1
    3848     3669     3668 1
    3849     3733     3668 1
    3850     3734     3668 1
    3851     3670     3669 1
    3852     3735     3669 1
    3853     3736     3669 1
    3854     3671     3670 1
    3855     3737     3670 1
    3856     3738     3670 1
    3857     3672     3671 1
    3858     3739     3671 1
    3859     3740     3671 1
    3860     3673     3672 1
    3861     3741     3672 1
    3862     3742     3672 1
    3863     3674     3673 1
    3864     3743     3673 1
    3865     3744     3673 1
    3866     3675     3674 1
    3867     3745     3674 1
    3868     3746     3674 1
    3869     3676     3675 1
    3870     3747     3675 1
    3871     3748     3675 1
    3872     3677     3676 1
    3873     3749     3676 1
    3874     3750     3676 1
    3875     3751     3677 1
    3876     3752     3677 1
    3877     3753     3677 1
    3878     3679     3678 1
    3879     3754     3678 1
    3880     3755     3678 1
    3881     3680     3679 1
    3882     3756     3679 1
    3883     3757     3679 1
    3884     3681     3680 1
    3885     3758     3680 1
    3886     3759     3680 1
    3887     3682     3681 1
    3888     3760     3681 1
    3889     3761     3681 1
    3890     3683     3682 1
    3891     3762     3682 1
    3892     3763     3682 1
    3893     3684     3683 1
    3894     3764     3683 1
    3895     3765     3683 1
    3896     3685     3684 1
    3897     3766     3684 1
    3898     3767     3684 1
    3899     3768     3685 1
    3900     3769     3685 1
    3901     3770     3685 1
    3902     3772     3771 1
    3903     3791     3771 1
    3904     3811     3771 1
    3905     3775     3771 1
    3906     3773     3772 1
    3907     3790     3772 1
    3908     3774     3773 1
    3909     3788     3773 1
    3910     3775     3774 1
    3911     3778     3774 1
    3912     3776     3775 1
    3913     3777     3776 1
    3914     3831     3776 1
    3915     3778     3777 1
    3916     3779     3777 1
    3917     3780     3779 1
    3918     3784     3779 1
    3919     3781     3780 1
    3920     3832     3780 1
    3921     3782     3781 1
    3922     3783     3782 1
    3923     3784     3783 1
    3924     3787     3783 1
    3925     3785     3784 1
    3926     3786     3785 1
    3927     3787     3786 1
    3928     3789     3788 1
    3929     3790     3789 1
    3930     3927     3789 1
    3931     3833     3790 1
    3932     3792     3791 1
    3933     3834     3791 1
    3934     3835     3791 1
    3935     3793     3792 1
    3936     3803     3792 1
    3937     3836     3792 1
    3938     3794     3793 1
    3939     3837     3793 1
    3940     3838     3793 1
    3941     3795     3794 1
    3942     3839     3794 1
    3943     3840     3794 1
    3944     3796     3795 1
    3945     3841     3795 1
    3946     3842     3795 1
    3947     3797     3796 1
    3948     3843     3796 1
    3949     3844     3796 1
    3950     3798     3797 1
    3951     3845     3797 1
    3952     3846     3797 1
    3953     3799     3798 1
    3954     3847     3798 1
    3955     3848     3798 1
    3956     3800     3799 1
    3957     3849     3799 1
    3958     3850     3799 1
    3959     3801     3800 1
    3960     3851     3800 1
    3961     3852     3800 1
    3962     3802     3801 1
    3963     3853     3801 1
    3964     3854     3801 1
    3965     3855     3802 1
    3966     3856     3802 1
    3967     3857     3802 1
    3968     3804     3803 1
    3969     3858     3803 1
    3970     3859     3803 1
    3971     3805     3804 1
    3972     3860     3804 1
    3973     3861     3804 1
    3974     3806     3805 1
    3975     3862     3805 1
    3976     3863     3805 1
    3977     3807     3806 1
    3978     3864     3806 1
    3979     3865     3806 1
    3980     3808     3807 1
    3981     3866     3807 1
    3982     3867     3807 1
    3983     3809     3808 1
    3984     3868     3808 1
    3985     3869     3808 1
    3986     3810     3809 1
    3987     3870     3809 1
    3988     3871     3809 1
    3989     3872     3810 1
    3990     3873     3810 1
    3991     3874     3810 1
    3992     3812     3811 1
    3993     3875     3811 1
    3994     3876     3811 1
    3995     3813     3812 1
    3996     3823     3812 1
    3997     3877     3812 1
    3998     3814     3813 1
    3999     3878     3813 1
    4000     3879     3813 1
    4001     3815     3814 1
    4002     3880     3814 1
    4003     3881     3814 1
    4004     3816     3815 1
    4005     3882     3815 1
    4006     3883     3815 1
    4007     3817     3816 1
    4008     3884     3816 1
    4009     3885     3816 1
    4010     3818     3817 1
    4011     3886     3817 1
    4012     3887     3817 1
    4013     3819     3818 1
    4014     3888     3818 1
    4015     3889     3818 1
    4016     3820     3819 1
    4017     3890     3819 1
    4018     3891     3819 1
    4019     3821     3820 1
    4020     3892     3820 1
    4021     3893     3820 1
    4022     3822     3821 1
    4023     3894     3821 1
    4024     3895     3821 1
    4025     3896     3822 1
    4026     3897     3822 1
    4027     3898     3822 1
    4028     3824     3823 1
    4029     3899     3823 1
    4030     3900     3823 1
    4031     3825     3824 1
    4032     3901     3824 1
    4033     3902     3824 1
    4034     3826     3825 1
    4035     3903     3825 1
    4036     3904     3825 1
    4037     3827     3826 1
    4038     3905     3826 1
    4039     3906     3826 1
    4040     3828     3827 1
    4041     3907     3827 1
    4042     3908     3827 1
    4043     3829     3828 1
    4044     3909     3828 1
    4045     3910     3828 1
    4046     3830     3829 1
    4047     3911     3829 1
    4048     3912     3829 1
    4049     3913     3830 1
    4050     3914     3830 1
    4051     3915     3830 1
    4052     3917     3916 1
    4053     3936     3916 1
    4054     3956     3916 1
    4055     3920     3916 1
    4056     3918     3917 1
    4057     3935     3917 1
    4058     3919     3918 1
    4059     3933     3918 1
    4060     3920     3919 1
    4061     3923     3919 1
    4062     3921     3920 1
    4063     3922     3921 1
    4064     3976     3921 1
    4065     3923     3922 1
    4066     3924     3922 1
    4067     3925     3924 1
    4068     3929     3924 1
    4069     3926     3925 1
    4070     3977     3925 1
    4071     3927     3926 1
    4072     3928     3927 1
    4073     3929     3928 1
    4074     3932     3928 1
    4075     3930     3929 1
    4076     3931     3930 1
    4077     3932     3931 1
    4078     3934     3933 1
    4079     3935     3934 1
    4080     4072     3934 1
    4081     3978     3935 1
    4082     3937     3936 1
    4083     3979     3936 1
    4084     3980     3936 1
    4085     3938     3937 1
    4086     3948     3937 1
    4087     3981     3937 1
    4088     3939     3938 1
    4089     3982     3938 1
    4090     3983     3938 1
    4091     3940     3939 1
    4092     3984     3939 1
    4093     3985     3939 1
    4094     3941     3940 1
    4095     3986     3940 1
    4096     3987     3940 1
    4097     3942     3941 1
    4098     3988     3941 1
    4099     3989     3941 1
    4100     3943     3942 1
    4101     3990     3942 1
    4102     3991     3942 1
    4103     3944     3943 1
    4104     3992     3943 1
    4105     3993     3943 1
    4106     3945     3944 1
    4107     3994     3944 1
    4108     3995     3944 1
    4109     3946     3945 1
    4110     3996     3945 1
    4111     3997     3945 1
    4112     3947     3946 1
    4113     3998     3946 1
    4114     3999     3946 1
    4115     4000     3947 1
    4116     4001     3947 1
    4117     4002     3947 1
    4118     3949     3948 1
    4119     4003     3948 1
    4120     4004     3948 1
    4121     3950     3949 1
    4122     4005     3949 1
    4123     4006     3949 1
    4124     3951     3950 1
    4125     4007     3950 1
    4126     4008     3950 1
    4127     3952     3951 1
    4128     4009     3951 1
    4129     4010     3951 1
    4130     3953     3952 1
    4131     4011     3952 1
    4132     4012     3952 1
    4133     3954     3953 1
    4134     4013     3953 1
    4135     4014     3953 1
    4136     3955     3954 1
    4137     4015     3954 1
    4138     4016     3954 1
    4139     4017     3955 1
    4140     4018     3955 1
    4141     4019     3955 1
    4142     3957     3956 1
    4143     4020     3956 1
    4144     4021     3956 1
    4145     3958     3957 1
    4146     3968     3957 1
    4147     4022     3957 1
    4148     3959     3958 1
    4149     4023     3958 1
    4150     4024     3958 1
    4151     3960     3959 1
    4152     4025     3959 1
    4153     4026     3959 1
    4154     3961     3960 1
    4155     4027     3960 1
    4156     4028     3960 1
    4157     3962     3961 1
    4158     4029     3961 1
    4159     4030     3961 1
    4160     3963     3962 1
    4161     4031     3962 1
    4162     4032     3962 1
    4163     3964     3963 1
    4164     4033     3963 1
    4165     4034     3963 1
    4166     3965     3964 1
    4167     4035     3964 1
    4168     4036     3964 1
    4169     3966     3965 1
    4170     4037     3965 1
    4171     4038     3965 1
    4172     3967     3966 1
    4173     4039     3966 1
    4174     4040     3966 1
    4175     4041     3967 1
    4176     4042     3967 1
    4177     4043     3967 1
    4178     3969     3968 1
    4179     4044     3968 1
    4180     4045     3968 1
    4181     3970     3969 1
    4182     4046     3969 1
    4183     4047     3969 1
    4184     3971     3970 1
    4185     4048     3970 1
    4186     4049     3970 1
    4187     3972     3971 1
    4188     4050     3971 1
    4189     4051     3971 1
    4190     3973     3972 1
    4191     4052     3972 1
    4192     4053     3972 1
    4193     3974     3973 1
    4194     4054     3973 1
    4195     4055     3973 1
    4196     3975     3974 1
    4197     4056     3974 1
    4198     4057     3974 1
    4199     4058     3975 1
    4200     4059     3975 1
    4201     4060     3975 1
    4202     4062     4061 1
    4203     4081     4061 1
    4204     4101     4061 1
    4205     4065     4061 1
    4206     4063     4062 1
    4207     4080     4062 1
    4208     4064     4063 1
    4209     4078     4063 1
    4210     4065     4064 1
    4211     4068     4064 1
    4212     4066     4065 1
    4213     4067     4066 1
    4214     4121     4066 1
    4215     4068     4067 1
    4216     4069     4067 1
    4217     4070     4069 1
    4218     4074     4069 1
    4219     4071     4070 1
    4220     4122     4070 1
    4221     4072     4071 1
    4222     4073     4072 1
    4223     4074     4073 1
    4224     4077     4073 1
    4225     4075     4074 1
    4226     4076     4075 1
    4227     4077     4076 1
    4228     4079     4078 1
    4229     4080     4079 1
    4230     4217     4079 1
    4231     4123     4080 1
    4232     4082     4081 1
    4233     4124     4081 1
    4234     4125     4081 1
    4235     4083     4082 1
    4236     4093     4082 1
    4237     4126     4082 1
    4238     4084     4083 1
    4239     4127     4083 1
    4240     4128     4083 1
    4241     4085     4084 1
    4242     4129     4084 1
    4243     4130     4084 1
    4244     4086     4085 1
    4245     4131     4085 1
    4246     4132     4085 1
    4247     4087     4086 1
    4248     4133     4086 1
    4249     4134     4086 1
    4250     4088     4087 1
    4251     4135     4087 1
    4252     4136     4087 1
    4253     4089     4088 1
    4254     4137     4088 1
    4255     4138     4088 1
    4256     4090     4089 1
    4257     4139     4089 1
    4258     4140     4089 1
    4259     4091     4090 1
    4260     4141     4090 1
    4261     4142     4090 1
    4262     4092     4091 1
    4263     4143     4091 1
    4264     4144     4091 1
    4265     4145     4092 1
    4266     4146     4092 1
    4267     4147     4092 1
    4268     4094     4093 1
    4269     4148     4093 1
    4270     4149     4093 1
    4271     4095     4094 1
    4272     4150     4094 1
    4273     4151     4094 1
    4274     4096     4095 1
    4275     4152     4095 1
    4276     4153     4095 1
    4277     4097     4096 1
    4278     4154     4096 1
    4279     4155     4096 1
    4280     4098     4097 1
    4281     4156     4097 1
    4282     4157     4097 1
    4283     4099     4098 1
    4284     4158     4098 1
    4285     4159     4098 1
    4286     4100     4099 1
    4287     4160     4099 1
    4288     4161     4099 1
    4289     4162     4100 1
    4290     4163     4100 1
    4291     4164     4100 1
    4292     4102     4101 1
    4293     4165     4101 1
    4294     4166     4101 1
    4295     4103     4102 1
    4296     4113     4102 1
    4297     4167     4102 1
    4298     4104     4103 1
    4299     4168     4103 1
    4300     4169     4103 1
    4301     4105     4104 1
    4302     4170     4104 1
    4303     4171     4104 1
    4304     4106     4105 1
    4305     4172     4105 1
    4306     4173     4105 1
    4307     4107     4106 1
    4308     4174     4106 1
    4309     4175     4106 1
    4310     4108     4107 1
    4311     4176     4107 1
    4312     4177     4107 1
    4313     4109     4108 1
    4314     4178     4108 1
    4315     4179     4108 1
    4316     4110     4109 1
    4317     4180     4109 1
    4318     4181     4109 1
    4319     4111     4110 1
    4320     4182     4110 1
    4321     4183     4110 1
    4322     4112     4111 1
    4323     4184     4111 1
    4324     4185     4111 1
    4325     4186     4112 1
    4326     4187     4112 1
    4327     4188     4112 1
    4328     4114     4113 1
    4329     4189     4113 1
    4330     4190     4113 1
    4331     4115     4114 1
    4332     4191     4114 1
    4333     4192     4114 1
    4334     4116     4115 1
    4335     4193     4115 1
    4336     4194     4115 1
    4337     4117     4116 1
    4338     4195     4116 1
    4339     4196     4116 1
    4340     4118     4117 1
    4341     4197     4117 1
    4342     4198     4117 1
    4343     4119     4118 1
    4344     4199     4118 1
    4345     4200     4118 1
    4346     4120     4119 1
    4347     4201     4119 1
    4348     4202     4119 1
    4349     4203     4120 1
    4350     4204     4120 1
    4351     4205     4120 1
    4352     4207     4206 1
    4353     4226     4206 1
    4354     4246     4206 1
    4355     4210     4206 1
    4356     4208     4207 1
    4357     4225     4207 1
    4358     4209     4208 1
    4359     4223     4208 1
    4360     4210     4209 1
    4361     4213     4209 1
    4362     4211     4210 1
    4363     4212     4211 1
    4364     4266     4211 1
    4365     4213     4212 1
    4366     4214     4212 1
    4367     4215     4214 1
    4368     4219     4214 1
    4369     4216     4215 1
    4370     4267     4215 1
    4371     4217     4216 1
    4372     4218     4217 1
    4373     4219     4218 1
    4374     4222     4218 1
    4375     4220     4219 1
    4376     4221     4220 1
    4377     4222     4221 1
    4378     4224     4223 1
    4379     4225     4224 1
    4380     4352     4224 1
    4381     4268     4225 1
    4382     4227     4226 1
    4383     4269     4226 1
    4384     4270     4226 1
    4385     4228     4227 1
    4386     4238     4227 1
    4387     4271     4227 1
    4388     4229     4228 1
    4389     4272     4228 1
    4390     4273     4228 1
    4391     4230     4229 1
    4392     4274     4229 1
    4393     4275     4229 1
    4394     4231     4230 1
    4395     4276     4230 1
    4396     4277     4230 1
    4397     4232     4231 1
    4398     4278     4231 1
    4399     4279     4231 1
    4400     4233     4232 1
    4401     4280     4232 1
    4402     4281     4232 1
    4403     4234     4233 1
    4404     4282     4233 1
    4405     4283     4233 1
    4406     4235     4234 1
    4407     4284     4234 1
    4408     4285     4234 1
    4409     4236     4235 1
    4410     4286     4235 1
    4411     4287     4235 1
    4412     4237     4236 1
    4413     4288     4236 1
    4414     4289     4236 1
    4415     4290     4237 1
    4416     4291     4237 1
    4417     4292     4237 1
    4418     4239     4238 1
    4419     4293     4238 1
    4420     4294     4238 1
    4421     4240     4239 1
    4422     4295     4239 1
    4423     4296     4239 1
    4424     4241     4240 1
    4425     4297     4240 1
    4426     4298     4240 1
    4427     4242     4241 1
    4428     4299     4241 1
    4429     4300     4241 1
    4430     4243     4242 1
    4431     4301     4242 1
    4432     4302     4242 1
    4433     4244     4243 1
    4434     4303     4243 1
    4435     4304     4243 1
    4436     4245     4244 1
    4437     4305     4244 1
    4438     4306     4244 1
    4439     4307     4245 1
    4440     4308     4245 1
    4441     4309     4245 1
    4442     4247     4246 1
    4443     4310     4246 1
    4444     4311     4246 1
    4445     4248     4247 1
    4446     4258     4247 1
    4447     4312     4247 1
    4448     4249     4248 1
    4449     4313     4248 1
    4450     4314     4248 1
    4451     4250     4249 1
    4452     4315     4249 1
    4453     4316     4249 1
    4454     4251     4250 1
    4455     4317     4250 1
    4456     4318     4250 1
    4457     4252     4251 1
    4458     4319     4251 1
    4459     4320     4251 1
    4460     4253     4252 1
    4461     4321     4252 1
    4462     4322     4252 1
    4463     4254     4253 1
    4464     4323     4253 1
    4465     4324     4253 1
    4466     4255     4254 1
    4467     4325     4254 1
    4468     4326     4254 1
    4469     4256     4255 1
    4470     4327     4255 1
    4471     4328     4255 1
    4472     4257     4256 1
    4473     4329     4256 1
    4474     4330     4256 1
    4475     4331     4257 1
    4476     4332     4257 1
    4477     4333     4257 1
    4478     4259     4258 1
    4479     4334     4258 1
    4480     4335     4258 1
    4481     4260     4259 1
    4482     4336     4259 1
    4483     4337     4259 1
    4484     4261     4260 1
    4485     4338     4260 1
    4486     4339     4260 1
    4487     4262     4261 1
    4488     4340     4261 1
    4489     4341     4261 1
    4490     4263     4262 1
    4491     4342     4262 1
    4492     4343     4262 1
    4493     4264     4263 1
    4494     4344     4263 1
    4495     4345     4263 1
    4496     4265     4264 1
    4497     4346     4264 1
    4498     4347     4264 1
    4499     4348     4265 1
    4500     4349     4265 1
    4501     4350     4265 1
@<TRIPOS>SUBSTRUCTURE
       1 Polymer         1 RESIDUE    0 **** ROOT      0
