@<TRIPOS>MOLECULE
Compound
123 127 1 0 1
SMALL
NO_CHARGES
@<TRIPOS>CRYSIN
   27.2547    26.3569     9.5991    90.0000    90.0000    90.0000  1  1
@<TRIPOS>ATOM
       1 C0           1.0004     3.2931     0.1992 C0            1 Compound
       2 C1          -0.3134     3.1202    -0.1367 C1            1 Compound
       3 C1          -0.9623     2.2537     0.6663 C1            1 Compound
       4 C1          -0.1664     1.7304     1.5456 C1            1 Compound
       5 C1           1.2020     2.2474     1.3695 C1            1 Compound
       6 C1           1.8022     0.8969     1.0086 C1            1 Compound
       7 C1           1.0749    -0.2130     1.3282 C1            1 Compound
       8 S2          -0.4218     0.1634     2.3022 S2            1 Compound
       9 C1           1.4384    -1.6182     0.8665 C1            1 Compound
      10 C1           2.7372    -1.9184     0.3599 C1            1 Compound
      11 N3           3.0641    -3.1686    -0.0787 N3            1 Compound
      12 C1           2.1852    -4.1957    -0.0848 C1            1 Compound
      13 C1           0.8926    -3.9746     0.3739 C1            1 Compound
      14 C1           0.5155    -2.6855     0.8594 C1            1 Compound
      15 N3          -0.7807    -2.5910     1.2699 N3            1 Compound
      16 S2          -1.3624    -4.1197     1.0068 S2            1 Compound
      17 N3          -0.0661    -4.9325     0.3849 N3            1 Compound
      18 S2          -2.5346     1.9392     0.1865 S2            1 Compound
      19 C1          -2.4147     2.9867    -1.1385 C1            1 Compound
      20 C1          -1.1249     3.5271    -1.2090 C1            1 Compound
      21 C0           1.1731     4.8353     0.6070 C0            1 Compound
      22 C0           0.3575     6.1867     0.9281 C0            1 Compound
      23 C0          -0.7098     6.6178    -0.1267 C0            1 Compound
      24 C0          -2.1077     6.7342     0.5099 C0            1 Compound
      25 C0          -3.2438     6.9719    -0.5012 C0            1 Compound
      26 C0          -4.5682     7.1836     0.2569 C0            1 Compound
      27 C0          -5.7891     7.2288    -0.6704 C0            1 Compound
      28 C0          -7.0668     7.4766     0.1348 C0            1 Compound
      29 C0           1.4789     7.3102     1.0657 C0            1 Compound
      30 C0           1.2618     8.8274     1.3619 C0            1 Compound
      31 C0           0.9110     9.7548     0.1581 C0            1 Compound
      32 C0           1.4239    11.2097     0.3881 C0            1 Compound
      33 C0           1.1961    12.1450    -0.8176 C0            1 Compound
      34 C0           2.1107    13.3975    -0.8309 C0            1 Compound
      35 C0           1.9965    14.3166     0.3940 C0            1 Compound
      36 C0           2.9140    15.5375     0.2416 C0            1 Compound
      37 C0           1.9980     3.1721    -1.0511 C0            1 Compound
      38 C0           3.5955     3.5367    -1.0896 C0            1 Compound
      39 C0           3.8956     5.0534    -0.7572 C0            1 Compound
      40 C0           5.2769     5.6240    -1.0621 C0            1 Compound
      41 C0           5.4254     7.1427    -0.8596 C0            1 Compound
      42 C0           5.4492     7.5561     0.6266 C0            1 Compound
      43 C0           6.1017     8.9345     0.8367 C0            1 Compound
      44 C0           5.3086    10.0868     0.2449 C0            1 Compound
      45 C0           4.6592     2.5307    -0.4532 C0            1 Compound
      46 C0           6.0138     2.5299    -1.2588 C0            1 Compound
      47 C0           7.1836     1.5425    -0.9937 C0            1 Compound
      48 C0           8.2603     1.9088     0.0798 C0            1 Compound
      49 C0           9.6382     1.3450    -0.3878 C0            1 Compound
      50 C0          10.8616     1.6138     0.5151 C0            1 Compound
      51 C0          12.1513     1.2090    -0.2423 C0            1 Compound
      52 C0          13.4254     1.3781     0.5840 C0            1 Compound
      53 H4           2.6997     0.8262     0.4520 H4            1 Compound
      54 H5           3.5081    -1.1657     0.3302 H5            1 Compound
      55 H5           2.4849    -5.1710    -0.4535 H5            1 Compound
      56 H5          -3.2073     3.1639    -1.8527 H5            1 Compound
      57 H4          -0.8114     4.1592    -2.0246 H4            1 Compound
      58 H6           1.8854     4.7695     1.4571 H6            1 Compound
      59 H6           1.5855     5.2805    -0.2759 H6            1 Compound
      60 H6          -0.1339     6.0775     1.9199 H6            1 Compound
      61 H6          -0.4591     7.5841    -0.5998 H6            1 Compound
      62 H6          -0.7086     5.9410    -0.9732 H6            1 Compound
      63 H6          -2.3400     5.7893     1.0488 H6            1 Compound
      64 H6          -2.0786     7.5691     1.2445 H6            1 Compound
      65 H6          -3.0384     7.8642    -1.1328 H6            1 Compound
      66 H6          -3.3207     6.0785    -1.1596 H6            1 Compound
      67 H6          -4.4994     8.1357     0.8295 H6            1 Compound
      68 H6          -4.7196     6.3481     0.9748 H6            1 Compound
      69 H6          -5.6767     8.0360    -1.4255 H6            1 Compound
      70 H6          -5.8828     6.2541    -1.1978 H6            1 Compound
      71 H6          -7.2019     6.6875     0.9060 H6            1 Compound
      72 H6          -7.0187     8.4663     0.6380 H6            1 Compound
      73 H6          -7.9494     7.4649    -0.5387 H6            1 Compound
      74 H6           2.1178     6.9544     1.9036 H6            1 Compound
      75 H6           2.1177     7.3031     0.1545 H6            1 Compound
      76 H6           0.6151     9.0124     2.2431 H6            1 Compound
      77 H6           2.2870     9.1476     1.6545 H6            1 Compound
      78 H6           1.4540     9.3868    -0.7417 H6            1 Compound
      79 H6          -0.1777     9.7400    -0.0522 H6            1 Compound
      80 H6           0.9845    11.6588     1.3037 H6            1 Compound
      81 H6           2.5132    11.1519     0.5327 H6            1 Compound
      82 H6           1.4486    11.5971    -1.7518 H6            1 Compound
      83 H6           0.1242    12.4316    -0.8675 H6            1 Compound
      84 H6           1.8671    13.9870    -1.7425 H6            1 Compound
      85 H6           3.1693    13.0648    -0.9191 H6            1 Compound
      86 H6           2.3005    13.7628     1.3073 H6            1 Compound
      87 H6           0.9501    14.6673     0.5104 H6            1 Compound
      88 H6           2.6212    16.1370    -0.6475 H6            1 Compound
      89 H6           3.9742    15.2234     0.1260 H6            1 Compound
      90 H6           2.8383    16.1859     1.1403 H6            1 Compound
      91 H6           1.8950     2.1390    -1.4497 H6            1 Compound
      92 H6           1.5713     3.8172    -1.8529 H6            1 Compound
      93 H6           3.7767     3.4329    -2.1814 H6            1 Compound
      94 H6           3.7188     5.2438     0.3183 H6            1 Compound
      95 H6           3.2286     5.6595    -1.4070 H6            1 Compound
      96 H6           6.0245     5.1765    -0.3837 H6            1 Compound
      97 H6           5.4957     5.4062    -2.1299 H6            1 Compound
      98 H6           6.4224     7.3885    -1.2827 H6            1 Compound
      99 H6           4.6615     7.7126    -1.4341 H6            1 Compound
     100 H6           6.0974     6.8436     1.1794 H6            1 Compound
     101 H6           4.4341     7.5094     1.0742 H6            1 Compound
     102 H6           7.1205     8.9268     0.3918 H6            1 Compound
     103 H6           6.2076     9.1172     1.9280 H6            1 Compound
     104 H6           5.8492    11.0409     0.4247 H6            1 Compound
     105 H6           4.3390    10.1277     0.7613 H6            1 Compound
     106 H6           5.1588     9.9670    -0.8476 H6            1 Compound
     107 H6           4.7796     2.7000     0.6393 H6            1 Compound
     108 H6           4.3080     1.5000    -0.6230 H6            1 Compound
     109 H6           5.6926     2.2970    -2.2969 H6            1 Compound
     110 H6           6.5127     3.4906    -1.3295 H6            1 Compound
     111 H6           7.7309     1.6202    -1.9601 H6            1 Compound
     112 H6           6.8604     0.4836    -0.9190 H6            1 Compound
     113 H6           7.9601     1.5345     1.0826 H6            1 Compound
     114 H6           8.3841     3.0122     0.1384 H6            1 Compound
     115 H6           9.8599     1.8328    -1.3641 H6            1 Compound
     116 H6           9.5618     0.2491    -0.5553 H6            1 Compound
     117 H6          10.7653     1.0305     1.4562 H6            1 Compound
     118 H6          10.9298     2.6949     0.7650 H6            1 Compound
     119 H6          12.2494     1.8423    -1.1529 H6            1 Compound
     120 H6          12.0878     0.1467    -0.5630 H6            1 Compound
     121 H6          13.4042     0.7108     1.4704 H6            1 Compound
     122 H6          13.5502     2.4313     0.9111 H6            1 Compound
     123 H6          14.3053     1.1006    -0.0393 H6            1 Compound
@<TRIPOS>BOND
       1        2        1 1
       2       21        1 1
       3       37        1 1
       4        5        1 1
       5        3        2 1
       6       20        2 1
       7        4        3 1
       8       18        3 1
       9        5        4 1
      10        8        4 1
      11        6        5 1
      12        7        6 1
      13       53        6 1
      14        8        7 1
      15        9        7 1
      16       10        9 1
      17       14        9 1
      18       11       10 1
      19       54       10 1
      20       12       11 1
      21       13       12 1
      22       55       12 1
      23       14       13 1
      24       17       13 1
      25       15       14 1
      26       16       15 1
      27       17       16 1
      28       19       18 1
      29       20       19 1
      30       56       19 1
      31       57       20 1
      32       22       21 1
      33       58       21 1
      34       59       21 1
      35       23       22 1
      36       29       22 1
      37       60       22 1
      38       24       23 1
      39       61       23 1
      40       62       23 1
      41       25       24 1
      42       63       24 1
      43       64       24 1
      44       26       25 1
      45       65       25 1
      46       66       25 1
      47       27       26 1
      48       67       26 1
      49       68       26 1
      50       28       27 1
      51       69       27 1
      52       70       27 1
      53       71       28 1
      54       72       28 1
      55       73       28 1
      56       30       29 1
      57       74       29 1
      58       75       29 1
      59       31       30 1
      60       76       30 1
      61       77       30 1
      62       32       31 1
      63       78       31 1
      64       79       31 1
      65       33       32 1
      66       80       32 1
      67       81       32 1
      68       34       33 1
      69       82       33 1
      70       83       33 1
      71       35       34 1
      72       84       34 1
      73       85       34 1
      74       36       35 1
      75       86       35 1
      76       87       35 1
      77       88       36 1
      78       89       36 1
      79       90       36 1
      80       38       37 1
      81       91       37 1
      82       92       37 1
      83       39       38 1
      84       45       38 1
      85       93       38 1
      86       40       39 1
      87       94       39 1
      88       95       39 1
      89       41       40 1
      90       96       40 1
      91       97       40 1
      92       42       41 1
      93       98       41 1
      94       99       41 1
      95       43       42 1
      96      100       42 1
      97      101       42 1
      98       44       43 1
      99      102       43 1
     100      103       43 1
     101      104       44 1
     102      105       44 1
     103      106       44 1
     104       46       45 1
     105      107       45 1
     106      108       45 1
     107       47       46 1
     108      109       46 1
     109      110       46 1
     110       48       47 1
     111      111       47 1
     112      112       47 1
     113       49       48 1
     114      113       48 1
     115      114       48 1
     116       50       49 1
     117      115       49 1
     118      116       49 1
     119       51       50 1
     120      117       50 1
     121      118       50 1
     122       52       51 1
     123      119       51 1
     124      120       51 1
     125      121       52 1
     126      122       52 1
     127      123       52 1
@<TRIPOS>SUBSTRUCTURE
       1 Compound        1 RESIDUE    0 **** ROOT      0
