@<TRIPOS>MOLECULE
Compound
246 255 1 0 1
SMALL
NO_CHARGES
@<TRIPOS>CRYSIN
   32.9902    21.2319    21.6042    90.0000    90.0000    90.0000  1  1
@<TRIPOS>ATOM
       1 C0           9.5478    10.0911    10.6077 C0            1 Compound
       2 C1           8.2076    10.4852    11.1234 C1            1 Compound
       3 C1           8.2517    11.3595    12.1439 C1            1 Compound
       4 S2           6.7592    11.8620    12.6782 S2            1 Compound
       5 C1           6.0486    10.8371    11.5175 C1            1 Compound
       6 C1           6.9459    10.1271    10.7728 C1            1 Compound
       7 C1           9.5887    11.5810    12.5119 C1            1 Compound
       8 C1          10.3814    10.9187    11.6870 C1            1 Compound
       9 C1          11.7770    11.1353    12.1368 C1            1 Compound
      10 C1          11.8489    11.9151    13.2733 C1            1 Compound
      11 S2          10.2718    12.4857    13.8913 S2            1 Compound
      12 H3           6.6605     9.4100    10.0249 H3            1 Compound
      13 H3          12.7032    10.7767    11.7496 H3            1 Compound
      14 C0          -1.2888     9.1756    15.2677 C0            1 Compound
      15 C1          -2.6177     9.9128    14.7823 C1            1 Compound
      16 C1          -2.4349    10.9621    13.9556 C1            1 Compound
      17 S2          -3.7634    11.3670    13.0448 S2            1 Compound
      18 C1          -4.5864     9.9452    13.3750 C1            1 Compound
      19 C1          -3.8511     9.2587    14.3717 C1            1 Compound
      20 C1          -1.3021    10.5433    13.2710 C1            1 Compound
      21 C1          -0.7573     9.4081    13.8190 C1            1 Compound
      22 C1           0.3284     8.9886    13.0663 C1            1 Compound
      23 C1           0.5560     9.8728    11.9846 C1            1 Compound
      24 S2          -0.6458    11.0438    11.8510 S2            1 Compound
      25 H3          -4.1229     8.2537    14.6395 H3            1 Compound
      26 H3           1.0160     8.2406    13.4345 H3            1 Compound
      27 C1           2.8500     9.0362    11.5538 C1            1 Compound
      28 F4           2.4809     7.7503    11.7558 F4            1 Compound
      29 C1           4.2003     9.3100    11.4800 C1            1 Compound
      30 C1           4.6530    10.6196    11.3852 C1            1 Compound
      31 C1           3.7701    11.6654    11.2205 C1            1 Compound
      32 N5           4.1477    12.9657    11.0827 N5            1 Compound
      33 S2           2.7186    13.7492    10.9785 S2            1 Compound
      34 N5           1.6128    12.5364    11.1539 N5            1 Compound
      35 C1           2.3823    11.4127    11.2587 C1            1 Compound
      36 C1           1.9181    10.0899    11.5027 C1            1 Compound
      37 H3           4.9054     8.4851    11.6018 H3            1 Compound
      38 C1          -6.4079    10.3996    11.6549 C1            1 Compound
      39 F4          -6.1511    11.7283    11.7158 F4            1 Compound
      40 C1          -7.3963     9.9912    10.7470 C1            1 Compound
      41 C1          -7.7237     8.6495    10.5909 C1            1 Compound
      42 C1          -7.0581     7.7126    11.3577 C1            1 Compound
      43 N5          -7.3003     6.3809    11.2469 N5            1 Compound
      44 S2          -6.2264     5.7387    12.3230 S2            1 Compound
      45 N5          -5.4574     7.0634    12.9525 N5            1 Compound
      46 C1          -6.0567     8.0977    12.3069 C1            1 Compound
      47 C1          -5.7108     9.4671    12.4776 C1            1 Compound
      48 H3          -7.9031    10.7304    10.1416 H3            1 Compound
      49 C0           9.5489    10.5195     9.0540 C0            1 Compound
      50 C0           8.5813     9.8901     7.9467 C0            1 Compound
      51 C0           8.9145     8.5867     7.1160 C0            1 Compound
      52 C0           8.6401     7.1690     7.7057 C0            1 Compound
      53 C0           8.8522     5.9807     6.7047 C0            1 Compound
      54 C0          10.3134     5.7912     6.1810 C0            1 Compound
      55 C0          11.3078     5.4663     7.3254 C0            1 Compound
      56 C0          12.8064     5.5110     6.9682 C0            1 Compound
      57 C0          13.2327     6.8294     6.3056 C0            1 Compound
      58 C0          14.7512     6.9401     6.2378 C0            1 Compound
      59 C0          10.4352     4.7719     5.0076 C0            1 Compound
      60 C0          10.6010     3.2649     5.3337 C0            1 Compound
      61 C0           9.4812     2.5652     6.1056 C0            1 Compound
      62 C0           8.1518     2.5489     5.3436 C0            1 Compound
      63 C0           7.0436     1.8093     6.1107 C0            1 Compound
      64 C0           7.3398     0.3224     6.3267 C0            1 Compound
      65 H6           9.2918    11.6046     9.0763 H6            1 Compound
      66 H6          10.5127    10.4726     8.5610 H6            1 Compound
      67 H6           7.5177     9.9027     8.2162 H6            1 Compound
      68 H6           8.6250    10.6575     7.1415 H6            1 Compound
      69 H6           9.9438     8.6740     6.7231 H6            1 Compound
      70 H6           8.2481     8.6333     6.2252 H6            1 Compound
      71 H6           7.5776     7.1429     8.0343 H6            1 Compound
      72 H6           9.2627     6.9566     8.5731 H6            1 Compound
      73 H6           8.5140     5.0522     7.2038 H6            1 Compound
      74 H6           8.1794     6.1529     5.8368 H6            1 Compound
      75 H6          10.5596     6.7754     5.7379 H6            1 Compound
      76 H6          11.0715     4.4837     7.7838 H6            1 Compound
      77 H6          11.1635     6.1859     8.1239 H6            1 Compound
      78 H6          13.3574     5.3808     7.9270 H6            1 Compound
      79 H6          13.0945     4.6747     6.3017 H6            1 Compound
      80 H6          12.8499     7.6935     6.8722 H6            1 Compound
      81 H6          12.8137     6.8888     5.2801 H6            1 Compound
      82 H6          15.1780     6.0939     5.6614 H6            1 Compound
      83 H6          15.0319     7.8933     5.7449 H6            1 Compound
      84 H6          15.1775     6.9374     7.2650 H6            1 Compound
      85 H6          11.3710     5.0305     4.4651 H6            1 Compound
      86 H6           9.6089     4.9352     4.2841 H6            1 Compound
      87 H6          10.7489     2.7267     4.3714 H6            1 Compound
      88 H6          11.5336     3.1173     5.9138 H6            1 Compound
      89 H6           9.8248     1.5213     6.2591 H6            1 Compound
      90 H6           9.3550     3.0190     7.1070 H6            1 Compound
      91 H6           8.2948     2.0696     4.3503 H6            1 Compound
      92 H6           7.8155     3.5941     5.1809 H6            1 Compound
      93 H6           6.1069     1.8891     5.5187 H6            1 Compound
      94 H6           6.8766     2.2988     7.0948 H6            1 Compound
      95 H6           8.2264     0.1737     6.9761 H6            1 Compound
      96 H6           7.5087    -0.1832     5.3522 H6            1 Compound
      97 H6           6.4751    -0.1563     6.8314 H6            1 Compound
      98 C0           9.6864     8.5797    10.7989 C0            1 Compound
      99 C0          11.0525     7.9068    10.5563 C0            1 Compound
     100 C0          11.8729     8.3089     9.3077 C0            1 Compound
     101 C0          12.7015     9.5583     9.5636 C0            1 Compound
     102 C0          13.6504    10.0456     8.4860 C0            1 Compound
     103 C0          13.1400    11.0164     7.3735 C0            1 Compound
     104 C0          12.5755    12.3687     7.9328 C0            1 Compound
     105 C0          11.9954    13.3530     6.8866 C0            1 Compound
     106 C0          10.7430    12.8254     6.1673 C0            1 Compound
     107 C0          10.1642    13.8748     5.2161 C0            1 Compound
     108 C0          14.2955    11.2781     6.3504 C0            1 Compound
     109 C0          15.5054    12.1906     6.7547 C0            1 Compound
     110 C0          16.3770    11.7982     7.9728 C0            1 Compound
     111 C0          16.9495    10.3665     7.8803 C0            1 Compound
     112 C0          17.4907     9.8337     9.2185 C0            1 Compound
     113 C0          18.6800    10.6168     9.7578 C0            1 Compound
     114 H6           9.3783     8.2952    11.8296 H6            1 Compound
     115 H6           8.9041     8.1409    10.1664 H6            1 Compound
     116 H6          11.6906     8.0411    11.4537 H6            1 Compound
     117 H6          10.8240     6.8197    10.4964 H6            1 Compound
     118 H6          11.2466     8.3830     8.4134 H6            1 Compound
     119 H6          12.6250     7.5081     9.1521 H6            1 Compound
     120 H6          13.3461     9.2593    10.4191 H6            1 Compound
     121 H6          12.0957    10.4055     9.8307 H6            1 Compound
     122 H6          14.3764    10.5963     9.0710 H6            1 Compound
     123 H6          14.1385     9.1527     8.0600 H6            1 Compound
     124 H6          12.3330    10.4713     6.8372 H6            1 Compound
     125 H6          13.3886    12.8914     8.4775 H6            1 Compound
     126 H6          11.7785    12.2069     8.6764 H6            1 Compound
     127 H6          11.7065    14.2811     7.4290 H6            1 Compound
     128 H6          12.7679    13.6351     6.1426 H6            1 Compound
     129 H6           9.9646    12.5794     6.9175 H6            1 Compound
     130 H6          10.9873    11.9137     5.5838 H6            1 Compound
     131 H6          10.9057    14.1454     4.4348 H6            1 Compound
     132 H6           9.2560    13.4721     4.7184 H6            1 Compound
     133 H6           9.8768    14.7912     5.7759 H6            1 Compound
     134 H6          13.8445    11.7526     5.4540 H6            1 Compound
     135 H6          14.6761    10.2986     5.9960 H6            1 Compound
     136 H6          16.1762    12.2351     5.8713 H6            1 Compound
     137 H6          15.1364    13.2233     6.9318 H6            1 Compound
     138 H6          17.2187    12.5159     8.0665 H6            1 Compound
     139 H6          15.8032    11.9625     8.8988 H6            1 Compound
     140 H6          17.7203    10.3195     7.0834 H6            1 Compound
     141 H6          16.1607     9.6574     7.5920 H6            1 Compound
     142 H6          17.8073     8.7779     9.0701 H6            1 Compound
     143 H6          16.6760     9.8368     9.9774 H6            1 Compound
     144 H6          18.3943    11.6658     9.9762 H6            1 Compound
     145 H6          19.5121    10.5964     9.0242 H6            1 Compound
     146 H6          19.0247    10.1455    10.7034 H6            1 Compound
     147 C0          -1.9516     8.0307    16.1500 C0            1 Compound
     148 C0          -1.2980     7.2858    17.3040 C0            1 Compound
     149 C0          -0.2318     6.3505    16.7945 C0            1 Compound
     150 C0           0.4433     5.6174    17.9541 C0            1 Compound
     151 C0           1.3798     4.5520    17.4009 C0            1 Compound
     152 C0           2.7334     5.0559    16.8078 C0            1 Compound
     153 C0           3.7524     5.2599    17.9666 C0            1 Compound
     154 C0           5.2466     5.4082    17.6110 C0            1 Compound
     155 C0           5.6220     6.5763    16.7001 C0            1 Compound
     156 C0           7.1425     6.6300    16.5361 C0            1 Compound
     157 C0           3.2371     4.1386    15.6522 C0            1 Compound
     158 C0           3.6513     2.6814    15.9461 C0            1 Compound
     159 C0           2.5432     1.7256    16.4012 C0            1 Compound
     160 C0           1.4016     1.5694    15.3788 C0            1 Compound
     161 C0           0.2059     0.8077    15.9667 C0            1 Compound
     162 C0           0.5500    -0.6119    16.4048 C0            1 Compound
     163 H6          -2.4851     7.2905    15.5315 H6            1 Compound
     164 H6          -2.7088     8.5823    16.7695 H6            1 Compound
     165 H6          -2.0794     6.6836    17.8231 H6            1 Compound
     166 H6          -0.9871     7.9798    18.1032 H6            1 Compound
     167 H6           0.5133     6.8980    16.1913 H6            1 Compound
     168 H6          -0.7486     5.6176    16.1336 H6            1 Compound
     169 H6          -0.3586     5.0968    18.5273 H6            1 Compound
     170 H6           0.9704     6.3045    18.6502 H6            1 Compound
     171 H6           1.5784     3.8456    18.2276 H6            1 Compound
     172 H6           0.7867     4.0178    16.6378 H6            1 Compound
     173 H6           2.5791     6.0318    16.2970 H6            1 Compound
     174 H6           3.7211     4.3610    18.6194 H6            1 Compound
     175 H6           3.4212     6.1266    18.5818 H6            1 Compound
     176 H6           5.7877     5.5253    18.5768 H6            1 Compound
     177 H6           5.6180     4.4771    17.1436 H6            1 Compound
     178 H6           5.2703     7.5076    17.1420 H6            1 Compound
     179 H6           5.1525     6.4925    15.7025 H6            1 Compound
     180 H6           7.5088     5.7017    16.0478 H6            1 Compound
     181 H6           7.4329     7.5014    15.9144 H6            1 Compound
     182 H6           7.6356     6.7197    17.5279 H6            1 Compound
     183 H6           4.1248     4.6239    15.2058 H6            1 Compound
     184 H6           2.4789     4.1577    14.8409 H6            1 Compound
     185 H6           4.0811     2.2706    15.0069 H6            1 Compound
     186 H6           4.4509     2.6704    16.7108 H6            1 Compound
     187 H6           3.0101     0.7357    16.5735 H6            1 Compound
     188 H6           2.1524     2.0466    17.3754 H6            1 Compound
     189 H6           1.7851     1.0700    14.4637 H6            1 Compound
     190 H6           1.0039     2.5523    15.0667 H6            1 Compound
     191 H6          -0.5922     0.7599    15.1952 H6            1 Compound
     192 H6          -0.1943     1.3714    16.8395 H6            1 Compound
     193 H6           1.2999    -0.6048    17.2225 H6            1 Compound
     194 H6           0.9429    -1.1911    15.5436 H6            1 Compound
     195 H6          -0.3654    -1.1060    16.7903 H6            1 Compound
     196 C0           0.1116     9.7407    15.9660 C0            1 Compound
     197 C0           0.8361     9.6006    17.3754 C0            1 Compound
     198 C0           2.3909     9.8568    17.2894 C0            1 Compound
     199 C0           3.1411     9.9642    18.6650 C0            1 Compound
     200 C0           4.7238    10.0998    18.6122 C0            1 Compound
     201 C0           5.2445    11.0932    17.5421 C0            1 Compound
     202 C0           4.8422    12.5471    17.9075 C0            1 Compound
     203 C0           4.6718    13.4939    16.7050 C0            1 Compound
     204 C0           3.4695    13.0660    15.8426 C0            1 Compound
     205 C0           3.0950    14.0768    14.7770 C0            1 Compound
     206 C0           6.7406    10.9521    17.0807 C0            1 Compound
     207 C0           7.9163    11.5579    17.8947 C0            1 Compound
     208 C0           8.4711    10.7992    19.1155 C0            1 Compound
     209 C0           9.0931     9.4399    18.7297 C0            1 Compound
     210 C0           9.9345     8.7919    19.8487 C0            1 Compound
     211 C0          11.2527     9.5313    20.1195 C0            1 Compound
     212 H6           0.2812    10.7904    15.6298 H6            1 Compound
     213 H6           0.8870     9.1240    15.4624 H6            1 Compound
     214 H6           0.3483    10.2700    18.1059 H6            1 Compound
     215 H6           0.8731     8.5716    17.7493 H6            1 Compound
     216 H6           2.5277    10.7903    16.7464 H6            1 Compound
     217 H6           2.8639     9.0406    16.6885 H6            1 Compound
     218 H6           2.9124     9.0685    19.2834 H6            1 Compound
     219 H6           2.7097    10.8392    19.1874 H6            1 Compound
     220 H6           5.1294    10.3404    19.6188 H6            1 Compound
     221 H6           5.1294     9.1166    18.3666 H6            1 Compound
     222 H6           4.7089    10.7575    16.6418 H6            1 Compound
     223 H6           5.5621    12.9560    18.6450 H6            1 Compound
     224 H6           3.8648    12.5603    18.4268 H6            1 Compound
     225 H6           4.4516    14.5007    17.1202 H6            1 Compound
     226 H6           5.5990    13.5612    16.0990 H6            1 Compound
     227 H6           2.5767    12.9583    16.4984 H6            1 Compound
     228 H6           3.6788    12.1064    15.3268 H6            1 Compound
     229 H6           3.9341    14.2204    14.0683 H6            1 Compound
     230 H6           2.2099    13.6916    14.2229 H6            1 Compound
     231 H6           2.8198    15.0408    15.2535 H6            1 Compound
     232 H6           6.7793    11.5145    16.1219 H6            1 Compound
     233 H6           6.9672     9.8985    16.8113 H6            1 Compound
     234 H6           8.7787    11.6331    17.1919 H6            1 Compound
     235 H6           7.6787    12.6015    18.1780 H6            1 Compound
     236 H6           9.2793    11.4474    19.5154 H6            1 Compound
     237 H6           7.7059    10.6773    19.9094 H6            1 Compound
     238 H6           9.7536     9.5491    17.8407 H6            1 Compound
     239 H6           8.2639     8.7562    18.4635 H6            1 Compound
     240 H6          10.2089     7.7652    19.5205 H6            1 Compound
     241 H6           9.3412     8.7100    20.7837 H6            1 Compound
     242 H6          11.0830    10.5604    20.4927 H6            1 Compound
     243 H6          11.8652     9.5780    19.1923 H6            1 Compound
     244 H6          11.8382     8.9828    20.8883 H6            1 Compound
     245 H7          12.7895    12.1473    13.7562 H7            1 Compound
     246 H3          -8.4781     8.3556     9.8675 H3            1 Compound
@<TRIPOS>BOND
       1        2        1 1
       2        8        1 1
       3       49        1 1
       4       98        1 1
       5        3        2 1
       6        6        2 1
       7        4        3 1
       8        7        3 1
       9        5        4 1
      10        6        5 1
      11       30        5 1
      12       12        6 1
      13        8        7 1
      14       11        7 1
      15        9        8 1
      16       10        9 1
      17       13        9 1
      18       11       10 1
      19      245       10 1
      20       15       14 1
      21       21       14 1
      22      147       14 1
      23      196       14 1
      24       16       15 1
      25       19       15 1
      26       17       16 1
      27       20       16 1
      28       18       17 1
      29       19       18 1
      30       47       18 1
      31       25       19 1
      32       21       20 1
      33       24       20 1
      34       22       21 1
      35       23       22 1
      36       26       22 1
      37       24       23 1
      38       36       23 1
      39       28       27 1
      40       29       27 1
      41       36       27 1
      42       30       29 1
      43       37       29 1
      44       31       30 1
      45       32       31 1
      46       35       31 1
      47       33       32 1
      48       34       33 1
      49       35       34 1
      50       36       35 1
      51       39       38 1
      52       40       38 1
      53       47       38 1
      54       41       40 1
      55       48       40 1
      56       42       41 1
      57      246       41 1
      58       43       42 1
      59       46       42 1
      60       44       43 1
      61       45       44 1
      62       46       45 1
      63       47       46 1
      64       50       49 1
      65       65       49 1
      66       66       49 1
      67       51       50 1
      68       67       50 1
      69       68       50 1
      70       52       51 1
      71       69       51 1
      72       70       51 1
      73       53       52 1
      74       71       52 1
      75       72       52 1
      76       54       53 1
      77       73       53 1
      78       74       53 1
      79       55       54 1
      80       59       54 1
      81       75       54 1
      82       56       55 1
      83       76       55 1
      84       77       55 1
      85       57       56 1
      86       78       56 1
      87       79       56 1
      88       58       57 1
      89       80       57 1
      90       81       57 1
      91       82       58 1
      92       83       58 1
      93       84       58 1
      94       60       59 1
      95       85       59 1
      96       86       59 1
      97       61       60 1
      98       87       60 1
      99       88       60 1
     100       62       61 1
     101       89       61 1
     102       90       61 1
     103       63       62 1
     104       91       62 1
     105       92       62 1
     106       64       63 1
     107       93       63 1
     108       94       63 1
     109       95       64 1
     110       96       64 1
     111       97       64 1
     112       99       98 1
     113      114       98 1
     114      115       98 1
     115      100       99 1
     116      116       99 1
     117      117       99 1
     118      101      100 1
     119      118      100 1
     120      119      100 1
     121      102      101 1
     122      120      101 1
     123      121      101 1
     124      103      102 1
     125      122      102 1
     126      123      102 1
     127      104      103 1
     128      108      103 1
     129      124      103 1
     130      105      104 1
     131      125      104 1
     132      126      104 1
     133      106      105 1
     134      127      105 1
     135      128      105 1
     136      107      106 1
     137      129      106 1
     138      130      106 1
     139      131      107 1
     140      132      107 1
     141      133      107 1
     142      109      108 1
     143      134      108 1
     144      135      108 1
     145      110      109 1
     146      136      109 1
     147      137      109 1
     148      111      110 1
     149      138      110 1
     150      139      110 1
     151      112      111 1
     152      140      111 1
     153      141      111 1
     154      113      112 1
     155      142      112 1
     156      143      112 1
     157      144      113 1
     158      145      113 1
     159      146      113 1
     160      148      147 1
     161      163      147 1
     162      164      147 1
     163      149      148 1
     164      165      148 1
     165      166      148 1
     166      150      149 1
     167      167      149 1
     168      168      149 1
     169      151      150 1
     170      169      150 1
     171      170      150 1
     172      152      151 1
     173      171      151 1
     174      172      151 1
     175      153      152 1
     176      157      152 1
     177      173      152 1
     178      154      153 1
     179      174      153 1
     180      175      153 1
     181      155      154 1
     182      176      154 1
     183      177      154 1
     184      156      155 1
     185      178      155 1
     186      179      155 1
     187      180      156 1
     188      181      156 1
     189      182      156 1
     190      158      157 1
     191      183      157 1
     192      184      157 1
     193      159      158 1
     194      185      158 1
     195      186      158 1
     196      160      159 1
     197      187      159 1
     198      188      159 1
     199      161      160 1
     200      189      160 1
     201      190      160 1
     202      162      161 1
     203      191      161 1
     204      192      161 1
     205      193      162 1
     206      194      162 1
     207      195      162 1
     208      197      196 1
     209      212      196 1
     210      213      196 1
     211      198      197 1
     212      214      197 1
     213      215      197 1
     214      199      198 1
     215      216      198 1
     216      217      198 1
     217      200      199 1
     218      218      199 1
     219      219      199 1
     220      201      200 1
     221      220      200 1
     222      221      200 1
     223      202      201 1
     224      206      201 1
     225      222      201 1
     226      203      202 1
     227      223      202 1
     228      224      202 1
     229      204      203 1
     230      225      203 1
     231      226      203 1
     232      205      204 1
     233      227      204 1
     234      228      204 1
     235      229      205 1
     236      230      205 1
     237      231      205 1
     238      207      206 1
     239      232      206 1
     240      233      206 1
     241      208      207 1
     242      234      207 1
     243      235      207 1
     244      209      208 1
     245      236      208 1
     246      237      208 1
     247      210      209 1
     248      238      209 1
     249      239      209 1
     250      211      210 1
     251      240      210 1
     252      241      210 1
     253      242      211 1
     254      243      211 1
     255      244      211 1
@<TRIPOS>SUBSTRUCTURE
       1 Compound        1 RESIDUE    0 **** ROOT      0
