@<TRIPOS>MOLECULE
Compound
198 207 1 0 1
SMALL
NO_CHARGES
@<TRIPOS>CRYSIN
   36.1848    27.6429    10.4078    90.0000    90.0000    90.0000  1  1
@<TRIPOS>ATOM
       1 C0           0.5245     3.3643    -0.0362 C0            1 Compound
       2 C1          -0.8754     3.3984    -0.4612 C1            1 Compound
       3 C1          -1.5918     2.4305     0.1658 C1            1 Compound
       4 C1          -0.8793     1.6869     0.9542 C1            1 Compound
       5 C1           0.5074     2.1577     1.0068 C1            1 Compound
       6 C1           1.1675     0.8048     0.8404 C1            1 Compound
       7 C1           0.3371    -0.2728     1.1885 C1            1 Compound
       8 S2          -1.3102     0.1759     1.7712 S2            1 Compound
       9 S2          -3.2471     2.4461    -0.1352 S2            1 Compound
      10 C1          -3.2695     3.8976    -1.0153 C1            1 Compound
      11 C1          -1.8435     4.2454    -1.2100 C1            1 Compound
      12 C1          -4.6030     4.7594    -1.2104 C1            1 Compound
      13 C1          -4.5965     6.0806    -1.7357 C1            1 Compound
      14 C1          -5.7177     7.0012    -1.6618 C1            1 Compound
      15 F3          -5.5394     8.2499    -2.1465 F3            1 Compound
      16 C1          -6.9836     6.6728    -1.1017 C1            1 Compound
      17 C1          -8.2156     7.7069    -0.9953 C1            1 Compound
      18 C1          -8.2830     9.1054    -0.8085 C1            1 Compound
      19 C1          -9.7183     9.7654    -0.7714 C1            1 Compound
      20 C0         -10.3451    10.7824     0.0548 C0            1 Compound
      21 C1         -11.5649     9.9404     0.5573 C1            1 Compound
      22 C1         -11.6561     8.8631    -0.2502 C1            1 Compound
      23 C1         -10.6365     8.7071    -1.2514 C1            1 Compound
      24 S2          -9.8724     7.0394    -1.0562 S2            1 Compound
      25 S2         -13.0252     7.9936    -0.0900 S2            1 Compound
      26 C1         -13.7369     8.9900     1.0499 C1            1 Compound
      27 C1         -12.7476    10.0002     1.4101 C1            1 Compound
      28 C1         -15.2685     8.8696     1.2607 C1            1 Compound
      29 C1         -16.0461     9.9016     1.8592 C1            1 Compound
      30 F3         -15.4567    10.9938     2.3917 F3            1 Compound
      31 C1         -17.4676     9.8657     1.8399 C1            1 Compound
      32 C1         -18.1670     8.8040     1.2590 C1            1 Compound
      33 C1         -17.4548     7.7693     0.6945 C1            1 Compound
      34 N4         -18.0604     6.7073     0.0993 N4            1 Compound
      35 S2         -16.7808     5.8113    -0.4153 S2            1 Compound
      36 N4         -15.4746     6.6957     0.0741 N4            1 Compound
      37 C1         -16.0205     7.7802     0.6908 C1            1 Compound
      38 C0          -9.1888    11.5244     0.9442 C0            1 Compound
      39 C0          -8.2212    12.6268     0.1580 C0            1 Compound
      40 C0          -8.6686    14.1104     0.4334 C0            1 Compound
      41 C0          -8.5379    14.9992    -0.8311 C0            1 Compound
      42 C0          -8.5638    16.5360    -0.6440 C0            1 Compound
      43 C0          -9.7203    17.1362     0.1490 C0            1 Compound
      44 C0          -6.6060    12.5563    -0.0743 C0            1 Compound
      45 C0          -5.6196    13.6705     0.5095 C0            1 Compound
      46 C0          -4.2005    13.7869    -0.1931 C0            1 Compound
      47 C0          -3.4292    15.0982     0.2022 C0            1 Compound
      48 C0          -1.9517    15.2000    -0.2888 C0            1 Compound
      49 C0          -1.1619    16.2726     0.4922 C0            1 Compound
      50 C0         -11.2088    11.9961    -0.7151 C0            1 Compound
      51 C0         -12.3125    13.0266    -0.0157 C0            1 Compound
      52 C0         -13.8234    12.5405     0.0373 C0            1 Compound
      53 C0         -14.8415    12.7728    -1.1225 C0            1 Compound
      54 C0         -16.2084    12.1786    -0.6823 C0            1 Compound
      55 C0         -17.2946    12.1122    -1.7505 C0            1 Compound
      56 C0         -12.3996    14.5002    -0.6114 C0            1 Compound
      57 C0         -13.1967    15.5796     0.2505 C0            1 Compound
      58 C0         -13.5330    16.9082    -0.5179 C0            1 Compound
      59 C0         -14.1000    18.0681     0.3655 C0            1 Compound
      60 C0         -14.5083    19.2958    -0.4952 C0            1 Compound
      61 C0         -14.9713    20.5107     0.3263 C0            1 Compound
      62 C1          -7.0505     5.2963    -0.6678 C1            1 Compound
      63 C1          -5.8946     4.3765    -0.7065 C1            1 Compound
      64 N4          -6.1365     3.1425    -0.1821 N4            1 Compound
      65 S2          -7.7212     3.2246     0.2727 S2            1 Compound
      66 N4          -8.1762     4.7629    -0.1208 N4            1 Compound
      67 C0           0.9676     4.8090     0.4592 C0            1 Compound
      68 C0           0.2699     6.2143     0.2156 C0            1 Compound
      69 C0          -1.0788     6.3559     0.9631 C0            1 Compound
      70 C0          -1.8704     7.5915     0.4785 C0            1 Compound
      71 C0          -3.3774     7.4219     0.6697 C0            1 Compound
      72 C0          -3.9589     7.6976     2.0318 C0            1 Compound
      73 C0           1.1746     7.4701     0.6084 C0            1 Compound
      74 C0           1.2334     8.6470    -0.4542 C0            1 Compound
      75 C0           1.3022    10.1109     0.1321 C0            1 Compound
      76 C0           2.3729    11.1349    -0.3769 C0            1 Compound
      77 C0           2.3808    12.3906     0.5487 C0            1 Compound
      78 C0           3.0658    13.6353    -0.0355 C0            1 Compound
      79 C0           1.7067     3.0090    -1.1119 C0            1 Compound
      80 C0           3.3969     3.1319    -0.9526 C0            1 Compound
      81 C0           3.9994     4.6254    -0.9221 C0            1 Compound
      82 C0           4.4162     5.1847     0.4970 C0            1 Compound
      83 C0           5.3724     6.4022     0.4690 C0            1 Compound
      84 C0           4.7928     7.7334     0.0013 C0            1 Compound
      85 C0           4.4098     2.1978    -0.0959 C0            1 Compound
      86 C0           5.9574     2.3182    -0.5494 C0            1 Compound
      87 C0           7.1247     1.7611     0.3466 C0            1 Compound
      88 C0           8.5294     1.9130    -0.3544 C0            1 Compound
      89 C0           9.7450     1.5719     0.5526 C0            1 Compound
      90 C0          11.0960     1.6331    -0.1912 C0            1 Compound
      91 H5           2.1785     0.6299     0.5290 H5            1 Compound
      92 H6           0.6639    -1.3072     1.1281 H6            1 Compound
      93 H5          -1.5584     5.1476    -1.7144 H5            1 Compound
      94 H5          -3.6666     6.4487    -2.1377 H5            1 Compound
      95 H5          -7.3801     9.6672    -0.6530 H5            1 Compound
      96 H5         -12.9598    10.8369     2.0630 H5            1 Compound
      97 H5         -18.0413    10.6827     2.2576 H5            1 Compound
      98 H5         -19.2541     8.8044     1.2212 H5            1 Compound
      99 H7          -9.6323    12.0271     1.8167 H7            1 Compound
     100 H7          -8.5374    10.7368     1.3786 H7            1 Compound
     101 H7          -8.5073    12.3464    -0.8667 H7            1 Compound
     102 H7          -9.7213    14.1639     0.7733 H7            1 Compound
     103 H7          -8.0723    14.5028     1.2868 H7            1 Compound
     104 H7          -7.5796    14.7971    -1.3442 H7            1 Compound
     105 H7          -9.3332    14.6921    -1.5369 H7            1 Compound
     106 H7          -7.6249    16.8679    -0.1561 H7            1 Compound
     107 H7          -8.5916    16.9736    -1.6673 H7            1 Compound
     108 H7         -10.6820    16.8474    -0.2777 H7            1 Compound
     109 H7          -9.6742    16.8387     1.2160 H7            1 Compound
     110 H7          -9.6632    18.2462     0.0894 H7            1 Compound
     111 H7          -6.4832    12.7618    -1.1631 H7            1 Compound
     112 H7          -6.2044    11.5320     0.0555 H7            1 Compound
     113 H7          -5.4780    13.5368     1.6036 H7            1 Compound
     114 H7          -6.0699    14.6655     0.3491 H7            1 Compound
     115 H7          -4.3097    13.7927    -1.3005 H7            1 Compound
     116 H7          -3.5876    12.9036     0.0869 H7            1 Compound
     117 H7          -3.9735    15.9917    -0.1883 H7            1 Compound
     118 H7          -3.4188    15.1562     1.3057 H7            1 Compound
     119 H7          -1.4177    14.2435    -0.1142 H7            1 Compound
     120 H7          -1.9070    15.4298    -1.3787 H7            1 Compound
     121 H7          -1.1052    15.9867     1.5662 H7            1 Compound
     122 H7          -1.6274    17.2779     0.4187 H7            1 Compound
     123 H7          -0.1140    16.3456     0.1214 H7            1 Compound
     124 H7         -11.6715    11.6005    -1.6375 H7            1 Compound
     125 H7         -10.4772    12.6887    -1.1548 H7            1 Compound
     126 H7         -11.9345    13.1266     1.0209 H7            1 Compound
     127 H7         -14.2769    13.0033     0.9406 H7            1 Compound
     128 H7         -13.8706    11.4813     0.1333 H7            1 Compound
     129 H7         -14.9971    13.8525    -1.3410 H7            1 Compound
     130 H7         -14.4818    12.2643    -2.0407 H7            1 Compound
     131 H7         -16.5988    12.7549     0.1883 H7            1 Compound
     132 H7         -16.0488    11.1313    -0.3775 H7            1 Compound
     133 H7         -18.1979    11.6380    -1.2992 H7            1 Compound
     134 H7         -16.9621    11.4669    -2.5901 H7            1 Compound
     135 H7         -17.5764    13.1165    -2.1232 H7            1 Compound
     136 H7         -11.3869    14.8876    -0.7478 H7            1 Compound
     137 H7         -12.8383    14.4455    -1.6264 H7            1 Compound
     138 H7         -14.1780    15.1921     0.5922 H7            1 Compound
     139 H7         -12.5976    15.8071     1.1592 H7            1 Compound
     140 H7         -12.6371    17.3068    -1.0269 H7            1 Compound
     141 H7         -14.2790    16.6651    -1.3049 H7            1 Compound
     142 H7         -14.9924    17.7306     0.9363 H7            1 Compound
     143 H7         -13.3186    18.3845     1.0918 H7            1 Compound
     144 H7         -13.6477    19.6262    -1.1152 H7            1 Compound
     145 H7         -15.3397    19.0042    -1.1730 H7            1 Compound
     146 H7         -15.8496    20.2657     0.9594 H7            1 Compound
     147 H7         -14.1502    20.8922     0.9702 H7            1 Compound
     148 H7         -15.2678    21.3357    -0.3622 H7            1 Compound
     149 H7           1.2202     4.7329     1.5346 H7            1 Compound
     150 H7           1.8674     5.0634    -0.0492 H7            1 Compound
     151 H7           0.1389     6.2541    -0.8882 H7            1 Compound
     152 H7          -1.6698     5.4700     0.7689 H7            1 Compound
     153 H7          -0.9603     6.3434     2.0648 H7            1 Compound
     154 H7          -1.4882     8.5506     0.8926 H7            1 Compound
     155 H7          -1.7449     7.6289    -0.6250 H7            1 Compound
     156 H7          -3.8974     8.0907    -0.0467 H7            1 Compound
     157 H7          -3.6087     6.3735     0.4486 H7            1 Compound
     158 H7          -3.9403     8.7886     2.2230 H7            1 Compound
     159 H7          -5.0228     7.3637     2.0054 H7            1 Compound
     160 H7          -3.4216     7.1353     2.8177 H7            1 Compound
     161 H7           2.1986     7.1491     0.8347 H7            1 Compound
     162 H7           0.8221     7.8514     1.5903 H7            1 Compound
     163 H7           0.2841     8.6157    -1.0162 H7            1 Compound
     164 H7           2.0078     8.4496    -1.2288 H7            1 Compound
     165 H7           0.3417    10.6003    -0.1550 H7            1 Compound
     166 H7           1.2701    10.0788     1.2376 H7            1 Compound
     167 H7           2.1113    11.4338    -1.4172 H7            1 Compound
     168 H7           3.4039    10.7189    -0.3879 H7            1 Compound
     169 H7           2.8885    12.1177     1.5018 H7            1 Compound
     170 H7           1.3420    12.6999     0.7894 H7            1 Compound
     171 H7           2.5004    14.0035    -0.9185 H7            1 Compound
     172 H7           4.1200    13.4463    -0.3217 H7            1 Compound
     173 H7           3.0544    14.4528     0.7236 H7            1 Compound
     174 H7           1.4858     3.6407    -1.9897 H7            1 Compound
     175 H7           1.5256     1.9695    -1.4663 H7            1 Compound
     176 H7           3.6543     2.8078    -1.9943 H7            1 Compound
     177 H7           4.9222     4.6205    -1.5288 H7            1 Compound
     178 H7           3.3726     5.3321    -1.5021 H7            1 Compound
     179 H7           5.0321     4.4324     1.0173 H7            1 Compound
     180 H7           3.5663     5.3716     1.1761 H7            1 Compound
     181 H7           6.2434     6.1473    -0.1701 H7            1 Compound
     182 H7           5.7528     6.5701     1.5025 H7            1 Compound
     183 H7           5.6067     8.4898    -0.0166 H7            1 Compound
     184 H7           4.0506     8.1199     0.7231 H7            1 Compound
     185 H7           4.3596     7.6511    -1.0145 H7            1 Compound
     186 H7           4.3074     2.4381     0.9831 H7            1 Compound
     187 H7           4.1550     1.1261    -0.1965 H7            1 Compound
     188 H7           6.0404     1.8635    -1.5584 H7            1 Compound
     189 H7           6.2659     3.3710    -0.6350 H7            1 Compound
     190 H7           7.1463     2.3452     1.2942 H7            1 Compound
     191 H7           6.9724     0.6911     0.5937 H7            1 Compound
     192 H7           8.5544     1.2483    -1.2452 H7            1 Compound
     193 H7           8.6740     2.9598    -0.7040 H7            1 Compound
     194 H7           9.7898     2.2967     1.3947 H7            1 Compound
     195 H7           9.6398     0.5488     0.9686 H7            1 Compound
     196 H7          11.1380     0.8787    -1.0062 H7            1 Compound
     197 H7          11.2842     2.6392    -0.6238 H7            1 Compound
     198 H7          11.9307     1.4093     0.5127 H7            1 Compound
@<TRIPOS>BOND
       1        2        1 1
       2       67        1 1
       3       79        1 1
       4        5        1 1
       5        3        2 1
       6       11        2 1
       7        4        3 1
       8        9        3 1
       9        5        4 1
      10        8        4 1
      11        6        5 1
      12        7        6 1
      13       91        6 1
      14        8        7 1
      15       92        7 1
      16       10        9 1
      17       11       10 1
      18       12       10 1
      19       93       11 1
      20       13       12 1
      21       63       12 1
      22       14       13 1
      23       94       13 1
      24       15       14 1
      25       16       14 1
      26       17       16 1
      27       62       16 1
      28       18       17 1
      29       24       17 1
      30       19       18 1
      31       95       18 1
      32       20       19 1
      33       23       19 1
      34       21       20 1
      35       38       20 1
      36       50       20 1
      37       22       21 1
      38       27       21 1
      39       23       22 1
      40       25       22 1
      41       24       23 1
      42       26       25 1
      43       27       26 1
      44       28       26 1
      45       96       27 1
      46       29       28 1
      47       37       28 1
      48       30       29 1
      49       31       29 1
      50       32       31 1
      51       97       31 1
      52       33       32 1
      53       98       32 1
      54       34       33 1
      55       37       33 1
      56       35       34 1
      57       36       35 1
      58       37       36 1
      59       39       38 1
      60       99       38 1
      61      100       38 1
      62       40       39 1
      63       44       39 1
      64      101       39 1
      65       41       40 1
      66      102       40 1
      67      103       40 1
      68       42       41 1
      69      104       41 1
      70      105       41 1
      71       43       42 1
      72      106       42 1
      73      107       42 1
      74      108       43 1
      75      109       43 1
      76      110       43 1
      77       45       44 1
      78      111       44 1
      79      112       44 1
      80       46       45 1
      81      113       45 1
      82      114       45 1
      83       47       46 1
      84      115       46 1
      85      116       46 1
      86       48       47 1
      87      117       47 1
      88      118       47 1
      89       49       48 1
      90      119       48 1
      91      120       48 1
      92      121       49 1
      93      122       49 1
      94      123       49 1
      95       51       50 1
      96      124       50 1
      97      125       50 1
      98       52       51 1
      99       56       51 1
     100      126       51 1
     101       53       52 1
     102      127       52 1
     103      128       52 1
     104       54       53 1
     105      129       53 1
     106      130       53 1
     107       55       54 1
     108      131       54 1
     109      132       54 1
     110      133       55 1
     111      134       55 1
     112      135       55 1
     113       57       56 1
     114      136       56 1
     115      137       56 1
     116       58       57 1
     117      138       57 1
     118      139       57 1
     119       59       58 1
     120      140       58 1
     121      141       58 1
     122       60       59 1
     123      142       59 1
     124      143       59 1
     125       61       60 1
     126      144       60 1
     127      145       60 1
     128      146       61 1
     129      147       61 1
     130      148       61 1
     131       63       62 1
     132       66       62 1
     133       64       63 1
     134       65       64 1
     135       66       65 1
     136       68       67 1
     137      149       67 1
     138      150       67 1
     139       69       68 1
     140       73       68 1
     141      151       68 1
     142       70       69 1
     143      152       69 1
     144      153       69 1
     145       71       70 1
     146      154       70 1
     147      155       70 1
     148       72       71 1
     149      156       71 1
     150      157       71 1
     151      158       72 1
     152      159       72 1
     153      160       72 1
     154       74       73 1
     155      161       73 1
     156      162       73 1
     157       75       74 1
     158      163       74 1
     159      164       74 1
     160       76       75 1
     161      165       75 1
     162      166       75 1
     163       77       76 1
     164      167       76 1
     165      168       76 1
     166       78       77 1
     167      169       77 1
     168      170       77 1
     169      171       78 1
     170      172       78 1
     171      173       78 1
     172       80       79 1
     173      174       79 1
     174      175       79 1
     175       81       80 1
     176       85       80 1
     177      176       80 1
     178       82       81 1
     179      177       81 1
     180      178       81 1
     181       83       82 1
     182      179       82 1
     183      180       82 1
     184       84       83 1
     185      181       83 1
     186      182       83 1
     187      183       84 1
     188      184       84 1
     189      185       84 1
     190       86       85 1
     191      186       85 1
     192      187       85 1
     193       87       86 1
     194      188       86 1
     195      189       86 1
     196       88       87 1
     197      190       87 1
     198      191       87 1
     199       89       88 1
     200      192       88 1
     201      193       88 1
     202       90       89 1
     203      194       89 1
     204      195       89 1
     205      196       90 1
     206      197       90 1
     207      198       90 1
@<TRIPOS>SUBSTRUCTURE
       1 Compound        1 RESIDUE    0 **** ROOT      0
