@<TRIPOS>MOLECULE
Compound
123 127 1 0 1
SMALL
NO_CHARGES
@<TRIPOS>CRYSIN
   29.6318    35.3402     9.7069    90.0000    90.0000    90.0000  1  1
@<TRIPOS>ATOM
       1 C0           1.6474     3.2868    -0.0337 C0            1 Compound
       2 C1           0.4144     3.2152    -0.6725 C1            1 Compound
       3 C1          -0.4647     2.4084    -0.0567 C1            1 Compound
       4 C1           0.0538     1.8506     0.9896 C1            1 Compound
       5 C1           1.4633     2.2586     1.1705 C1            1 Compound
       6 C1           1.9850     0.8236     1.0162 C1            1 Compound
       7 C1           1.0666    -0.1659     1.2184 C1            1 Compound
       8 S2          -0.5511     0.4286     1.8087 S2            1 Compound
       9 C1           1.3430    -1.6091     0.8965 C1            1 Compound
      10 N3           2.5982    -1.9812     0.5126 N3            1 Compound
      11 C1           2.9395    -3.2561     0.1459 C1            1 Compound
      12 C1           1.9740    -4.2681     0.1253 C1            1 Compound
      13 C1           0.6742    -3.9422     0.4933 C1            1 Compound
      14 N3          -0.3423    -4.8425     0.4928 N3            1 Compound
      15 S2          -1.6230    -3.9220     0.9802 S2            1 Compound
      16 N3          -0.9679    -2.4177     1.2044 N3            1 Compound
      17 C1           0.3430    -2.6109     0.8863 C1            1 Compound
      18 S2          -1.9369     2.2890    -0.8412 S2            1 Compound
      19 C1          -1.4737     3.4205    -2.0169 C1            1 Compound
      20 C1          -0.1519     3.8333    -1.8013 C1            1 Compound
      21 C0           1.8967     4.8828     0.2453 C0            1 Compound
      22 C0           2.1874     6.3968    -0.2919 C0            1 Compound
      23 C0           2.1315     7.6198     0.6849 C0            1 Compound
      24 C0           2.4431     8.9526    -0.1104 C0            1 Compound
      25 C0           2.2459    10.3057     0.6459 C0            1 Compound
      26 C0           2.7287    11.5597    -0.1796 C0            1 Compound
      27 C0           2.4373    12.9123     0.5445 C0            1 Compound
      28 C0           3.1140    14.2150    -0.0353 C0            1 Compound
      29 C0           2.7095    15.4414     0.8446 C0            1 Compound
      30 C0           3.5449    16.7645     0.8683 C0            1 Compound
      31 C0           3.4471    17.8445    -0.2505 C0            1 Compound
      32 C0           4.0732    19.1727     0.2942 C0            1 Compound
      33 C0           4.0435    20.4045    -0.6412 C0            1 Compound
      34 C0           4.5371    21.6665     0.1199 C0            1 Compound
      35 C0           4.5668    22.9335    -0.7530 C0            1 Compound
      36 C0           4.9970    24.1592     0.0583 C0            1 Compound
      37 C0           2.9049     2.8780    -0.9252 C0            1 Compound
      38 C0           4.2850     2.9703    -0.1696 C0            1 Compound
      39 C0           5.5209     2.3624    -0.9273 C0            1 Compound
      40 C0           6.8385     2.5072    -0.0913 C0            1 Compound
      41 C0           8.1639     1.8519    -0.6509 C0            1 Compound
      42 C0           9.3307     2.0759     0.3721 C0            1 Compound
      43 C0          10.6892     1.2779     0.3253 C0            1 Compound
      44 C0          11.9261     1.7154    -0.5484 C0            1 Compound
      45 C0          13.2255     1.0152     0.0143 C0            1 Compound
      46 C0          14.6612     1.4363    -0.4895 C0            1 Compound
      47 C0          15.7348     0.8514     0.4977 C0            1 Compound
      48 C0          17.2048     1.3955     0.5409 C0            1 Compound
      49 C0          18.3641     0.6044    -0.1479 C0            1 Compound
      50 C0          19.7231     1.0288     0.5108 C0            1 Compound
      51 C0          20.9762     0.1880     0.1787 C0            1 Compound
      52 C0          21.5923     0.4671    -1.1866 C0            1 Compound
      53 H4           2.9806     0.5874     0.6733 H4            1 Compound
      54 H5           3.9531    -3.4822    -0.1482 H5            1 Compound
      55 H4           2.2295    -5.2752    -0.1777 H4            1 Compound
      56 H5          -2.1133     3.7680    -2.8166 H5            1 Compound
      57 H4           0.3479     4.5487    -2.4365 H4            1 Compound
      58 H6           1.8691     4.9199    -0.8423 H6            1 Compound
      59 H6           0.9797     5.1172     0.8384 H6            1 Compound
      60 H6           3.1940     6.4423    -0.7884 H6            1 Compound
      61 H6           1.3935     6.7511    -1.0387 H6            1 Compound
      62 H6           2.8573     7.4952     1.5139 H6            1 Compound
      63 H6           1.1064     7.6822     1.1179 H6            1 Compound
      64 H6           1.7825     9.0044    -1.0046 H6            1 Compound
      65 H6           3.4932     8.8890    -0.4628 H6            1 Compound
      66 H6           2.8192    10.2768     1.5965 H6            1 Compound
      67 H6           1.1664    10.4141     0.8911 H6            1 Compound
      68 H6           2.2349    11.5825    -1.1757 H6            1 Compound
      69 H6           3.8238    11.4577    -0.3338 H6            1 Compound
      70 H6           2.8058    12.8044     1.5872 H6            1 Compound
      71 H6           1.3350    13.0545     0.5818 H6            1 Compound
      72 H6           2.8370    14.3988    -1.0961 H6            1 Compound
      73 H6           4.2139    14.0711     0.0246 H6            1 Compound
      74 H6           2.8213    15.0807     1.8903 H6            1 Compound
      75 H6           1.6327    15.6747     0.6973 H6            1 Compound
      76 H6           3.1584    17.2772     1.7775 H6            1 Compound
      77 H6           4.6139    16.5287     1.0600 H6            1 Compound
      78 H6           3.9602    17.5026    -1.1748 H6            1 Compound
      79 H6           2.3791    18.0457    -0.4834 H6            1 Compound
      80 H6           3.5029    19.4556     1.2066 H6            1 Compound
      81 H6           5.1297    18.9905     0.5904 H6            1 Compound
      82 H6           4.6922    20.2187    -1.5257 H6            1 Compound
      83 H6           3.0057    20.5926    -0.9897 H6            1 Compound
      84 H6           3.8553    21.8519     0.9799 H6            1 Compound
      85 H6           5.5609    21.4900     0.5171 H6            1 Compound
      86 H6           5.2864    22.7961    -1.5884 H6            1 Compound
      87 H6           3.5590    23.1318    -1.1745 H6            1 Compound
      88 H6           5.0190    25.0650    -0.5944 H6            1 Compound
      89 H6           4.2714    24.3607     0.8832 H6            1 Compound
      90 H6           6.0052    24.0246     0.4966 H6            1 Compound
      91 H6           2.7565     1.8300    -1.2630 H6            1 Compound
      92 H6           2.9829     3.4690    -1.8637 H6            1 Compound
      93 H6           4.4879     4.0363     0.0615 H6            1 Compound
      94 H6           4.2072     2.4395     0.8006 H6            1 Compound
      95 H6           5.3235     1.2830    -1.1086 H6            1 Compound
      96 H6           5.6461     2.8705    -1.9058 H6            1 Compound
      97 H6           7.0213     3.5903     0.0721 H6            1 Compound
      98 H6           6.6367     2.0409     0.8989 H6            1 Compound
      99 H6           7.9843     0.7600    -0.7583 H6            1 Compound
     100 H6           8.4340     2.2702    -1.6429 H6            1 Compound
     101 H6           9.5421     3.1614     0.4794 H6            1 Compound
     102 H6           8.8871     1.7414     1.3371 H6            1 Compound
     103 H6          10.4934     0.1913     0.2056 H6            1 Compound
     104 H6          11.0538     1.4157     1.3677 H6            1 Compound
     105 H6          12.0645     2.8118    -0.4318 H6            1 Compound
     106 H6          11.7654     1.4871    -1.6232 H6            1 Compound
     107 H6          13.1239    -0.0877    -0.0732 H6            1 Compound
     108 H6          13.2206     1.2653     1.0963 H6            1 Compound
     109 H6          14.7295     2.5438    -0.4393 H6            1 Compound
     110 H6          14.8463     1.1151    -1.5371 H6            1 Compound
     111 H6          15.7296    -0.2596     0.5164 H6            1 Compound
     112 H6          15.3489     1.1734     1.4892 H6            1 Compound
     113 H6          17.2535     2.4848     0.3289 H6            1 Compound
     114 H6          17.4546     1.2909     1.6206 H6            1 Compound
     115 H6          18.2290    -0.4754     0.0730 H6            1 Compound
     116 H6          18.3720     0.7465    -1.2484 H6            1 Compound
     117 H6          19.9345     2.1060     0.3366 H6            1 Compound
     118 H6          19.6025     0.8888     1.6076 H6            1 Compound
     119 H6          20.7575    -0.8951     0.2980 H6            1 Compound
     120 H6          21.7628     0.4503     0.9242 H6            1 Compound
     121 H6          22.5185    -0.1426    -1.2941 H6            1 Compound
     122 H6          21.8860     1.5370    -1.2570 H6            1 Compound
     123 H6          20.8933     0.2092    -2.0042 H6            1 Compound
@<TRIPOS>BOND
       1        2        1 1
       2       21        1 1
       3       37        1 1
       4        5        1 1
       5        3        2 1
       6       20        2 1
       7        4        3 1
       8       18        3 1
       9        5        4 1
      10        8        4 1
      11        6        5 1
      12        7        6 1
      13       53        6 1
      14        8        7 1
      15        9        7 1
      16       10        9 1
      17       17        9 1
      18       11       10 1
      19       12       11 1
      20       54       11 1
      21       13       12 1
      22       55       12 1
      23       14       13 1
      24       17       13 1
      25       15       14 1
      26       16       15 1
      27       17       16 1
      28       19       18 1
      29       20       19 1
      30       56       19 1
      31       57       20 1
      32       22       21 1
      33       58       21 1
      34       59       21 1
      35       23       22 1
      36       60       22 1
      37       61       22 1
      38       24       23 1
      39       62       23 1
      40       63       23 1
      41       25       24 1
      42       64       24 1
      43       65       24 1
      44       26       25 1
      45       66       25 1
      46       67       25 1
      47       27       26 1
      48       68       26 1
      49       69       26 1
      50       28       27 1
      51       70       27 1
      52       71       27 1
      53       29       28 1
      54       72       28 1
      55       73       28 1
      56       30       29 1
      57       74       29 1
      58       75       29 1
      59       31       30 1
      60       76       30 1
      61       77       30 1
      62       32       31 1
      63       78       31 1
      64       79       31 1
      65       33       32 1
      66       80       32 1
      67       81       32 1
      68       34       33 1
      69       82       33 1
      70       83       33 1
      71       35       34 1
      72       84       34 1
      73       85       34 1
      74       36       35 1
      75       86       35 1
      76       87       35 1
      77       88       36 1
      78       89       36 1
      79       90       36 1
      80       38       37 1
      81       91       37 1
      82       92       37 1
      83       39       38 1
      84       93       38 1
      85       94       38 1
      86       40       39 1
      87       95       39 1
      88       96       39 1
      89       41       40 1
      90       97       40 1
      91       98       40 1
      92       42       41 1
      93       99       41 1
      94      100       41 1
      95       43       42 1
      96      101       42 1
      97      102       42 1
      98       44       43 1
      99      103       43 1
     100      104       43 1
     101       45       44 1
     102      105       44 1
     103      106       44 1
     104       46       45 1
     105      107       45 1
     106      108       45 1
     107       47       46 1
     108      109       46 1
     109      110       46 1
     110       48       47 1
     111      111       47 1
     112      112       47 1
     113       49       48 1
     114      113       48 1
     115      114       48 1
     116       50       49 1
     117      115       49 1
     118      116       49 1
     119       51       50 1
     120      117       50 1
     121      118       50 1
     122       52       51 1
     123      119       51 1
     124      120       51 1
     125      121       52 1
     126      122       52 1
     127      123       52 1
@<TRIPOS>SUBSTRUCTURE
       1 Compound        1 RESIDUE    0 **** ROOT      0
