@<TRIPOS>MOLECULE
Compound
246 255 1 0 1
SMALL
NO_CHARGES
@<TRIPOS>CRYSIN
   39.3446    54.2028     8.7978    90.0000    90.0000    90.0000  1  1
@<TRIPOS>ATOM
       1 C0           0.7841     2.8046     0.2678 C0            1 Compound
       2 C1           0.5411     1.4327    -0.1445 C1            1 Compound
       3 C1          -0.7654     1.0614    -0.0462 C1            1 Compound
       4 S2          -1.1045    -0.5656    -0.3572 S2            1 Compound
       5 C1           0.5227    -1.0559    -0.3927 C1            1 Compound
       6 C1           1.3046     0.1891    -0.3150 C1            1 Compound
       7 C1           0.9597    -2.5805    -0.3669 C1            1 Compound
       8 C1           0.0321    -3.6786    -0.3719 C1            1 Compound
       9 C1           0.4175    -5.0811    -0.3635 C1            1 Compound
      10 F3          -0.5694    -6.0085    -0.3760 F3            1 Compound
      11 C1           1.7750    -5.5260    -0.3457 C1            1 Compound
      12 C1           2.2328    -7.0777    -0.4261 C1            1 Compound
      13 C1           1.5170    -8.2865    -0.5437 C1            1 Compound
      14 C1           2.3208    -9.6565    -0.6487 C1            1 Compound
      15 C0           2.1427   -10.9784     0.0878 C0            1 Compound
      16 C1           3.6471   -11.0563     0.6205 C1            1 Compound
      17 C1           4.4177   -10.0588     0.0932 C1            1 Compound
      18 S2           6.0641   -10.3258     0.0947 S2            1 Compound
      19 C1           5.9632   -11.9014     0.6503 C1            1 Compound
      20 C1           4.5654   -12.1538     0.9527 C1            1 Compound
      21 C1           7.1683   -12.8527     0.4835 C1            1 Compound
      22 C1           8.5110   -12.3582     0.3166 C1            1 Compound
      23 F3           8.7903   -11.0327     0.3588 F3            1 Compound
      24 C1           9.6114   -13.2212     0.0972 C1            1 Compound
      25 C1           9.4402   -14.5987     0.0075 C1            1 Compound
      26 C1           8.1578   -15.1142     0.1229 C1            1 Compound
      27 N4           7.8964   -16.4382    -0.0056 N4            1 Compound
      28 S2           6.2569   -16.4858     0.1623 S2            1 Compound
      29 N4           5.8325   -14.9052     0.4048 N4            1 Compound
      30 C1           7.0249   -14.2601     0.3610 C1            1 Compound
      31 C1           3.7358    -9.1953    -0.8196 C1            1 Compound
      32 S2           3.9817    -7.4511    -0.3346 S2            1 Compound
      33 C0           0.5906   -10.7727     0.6987 C0            1 Compound
      34 C0          -0.9779   -10.8048    -0.0166 C0            1 Compound
      35 C0          -2.4497   -10.4716     0.6428 C0            1 Compound
      36 C0          -4.0194    -9.9349     0.6890 C0            1 Compound
      37 C0          -5.3883   -10.4027    -0.0774 C0            1 Compound
      38 C0          -6.7346    -9.5009     0.2619 C0            1 Compound
      39 C0          -6.5222    -8.0385    -0.3098 C0            1 Compound
      40 C0          -6.3418    -6.7935     0.6108 C0            1 Compound
      41 C0          -6.3587    -5.5345    -0.3197 C0            1 Compound
      42 C0          -6.0194    -4.1531     0.2634 C0            1 Compound
      43 C0          -8.2032   -10.0314    -0.2824 C0            1 Compound
      44 C0          -9.5737    -9.4621     0.4065 C0            1 Compound
      45 C0         -10.9982    -9.6426    -0.3471 C0            1 Compound
      46 C0         -12.3551    -9.2335     0.4178 C0            1 Compound
      47 C0         -13.6588    -9.2715    -0.4845 C0            1 Compound
      48 C0         -15.0372    -9.0113     0.2019 C0            1 Compound
      49 C0           2.0238   -12.6460    -0.2887 C0            1 Compound
      50 C0           1.0870   -13.8465    -0.9047 C0            1 Compound
      51 C0           1.3726   -15.5092    -0.7675 C0            1 Compound
      52 C0           0.6677   -16.6859     0.1806 C0            1 Compound
      53 C0           0.6681   -18.2587    -0.3891 C0            1 Compound
      54 C0          -0.0643   -19.5536     0.3641 C0            1 Compound
      55 C0          -1.5418   -19.2446     0.7108 C0            1 Compound
      56 C0          -2.6342   -19.0438    -0.3861 C0            1 Compound
      57 C0          -3.9435   -18.7201     0.4012 C0            1 Compound
      58 C0          -5.2961   -18.5294    -0.2997 C0            1 Compound
      59 C0           0.0718   -21.0707    -0.2843 C0            1 Compound
      60 C0          -0.5901   -22.4250     0.3974 C0            1 Compound
      61 C0          -0.2416   -23.8171    -0.3650 C0            1 Compound
      62 C0          -0.9871   -25.2648    -0.4345 C0            1 Compound
      63 C0          -1.0031   -26.4467     0.6178 C0            1 Compound
      64 C0          -1.4207   -27.8200    -0.0277 C0            1 Compound
      65 C1           2.7070    -4.4139    -0.2651 C1            1 Compound
      66 C1           2.3003    -2.9986    -0.2774 C1            1 Compound
      67 N4           3.3107    -2.0975    -0.1927 N4            1 Compound
      68 S2           4.6480    -3.0469    -0.1032 S2            1 Compound
      69 N4           4.0524    -4.5857    -0.1753 N4            1 Compound
      70 C1          -1.5126     2.0044     0.4131 C1            1 Compound
      71 C1          -0.6789     3.1590     0.8387 C1            1 Compound
      72 C1          -1.6720     4.2404     0.4112 C1            1 Compound
      73 C1          -2.9936     3.7960     0.2589 C1            1 Compound
      74 S2          -3.2773     2.0571     0.6009 S2            1 Compound
      75 C0           2.1588     2.6753     1.0846 C0            1 Compound
      76 C0           3.6226     2.3174     0.3983 C0            1 Compound
      77 C0           5.0941     1.9404    -0.2474 C0            1 Compound
      78 C0           6.5534     2.2235     0.4589 C0            1 Compound
      79 C0           7.8922     1.7496    -0.3817 C0            1 Compound
      80 C0           9.5069     2.1738    -0.2172 C0            1 Compound
      81 C0           9.6582     3.6014     0.3853 C0            1 Compound
      82 C0           9.7417     4.8280    -0.5564 C0            1 Compound
      83 C0           9.8527     6.0826     0.3614 C0            1 Compound
      84 C0          10.2900     7.4456    -0.2121 C0            1 Compound
      85 C0          10.7527     1.2684     0.3803 C0            1 Compound
      86 C0          12.2305     1.5525    -0.2980 C0            1 Compound
      87 C0          13.6122     1.1136     0.4260 C0            1 Compound
      88 C0          15.0038     1.2197    -0.3840 C0            1 Compound
      89 C0          16.2965     0.9626     0.4979 C0            1 Compound
      90 C0          17.6847     0.9265    -0.2167 C0            1 Compound
      91 C0           1.0578     4.1367    -0.6597 C0            1 Compound
      92 C0           1.2975     5.6043     0.1480 C0            1 Compound
      93 C0           1.2788     7.1121    -0.5568 C0            1 Compound
      94 C0           1.7753     8.4949     0.2416 C0            1 Compound
      95 C0           1.6633     9.9970    -0.4914 C0            1 Compound
      96 C0           2.6020    11.3851    -0.1993 C0            1 Compound
      97 C0           3.9425    11.1303     0.5615 C0            1 Compound
      98 C0           5.2012    10.9764    -0.3464 C0            1 Compound
      99 C0           6.4636    10.8179     0.5142 C0            1 Compound
     100 C0           7.7430    10.5986    -0.2962 C0            1 Compound
     101 C0           2.2193    13.0245    -0.3980 C0            1 Compound
     102 C0           3.1560    14.1827     0.3051 C0            1 Compound
     103 C0           3.0326    15.8212     0.4562 C0            1 Compound
     104 C0           3.4830    17.0421    -0.4970 C0            1 Compound
     105 C0           3.6172    18.4042     0.3319 C0            1 Compound
     106 C0           3.9938    19.7316    -0.3950 C0            1 Compound
     107 H5           2.3724     0.1780    -0.2714 H5            1 Compound
     108 H5          -1.0285    -3.4613    -0.3858 H5            1 Compound
     109 H5           0.4446    -8.2644    -0.5487 H5            1 Compound
     110 H5           4.2355   -13.1481     1.1946 H5            1 Compound
     111 H5          10.6146   -12.8193    -0.0182 H5            1 Compound
     112 H5          10.2928   -15.2514    -0.1709 H5            1 Compound
     113 H6           0.5676   -10.9042    -0.3729 H6            1 Compound
     114 H6           0.6062    -9.7845     1.2192 H6            1 Compound
     115 H6          -1.1318   -11.8368    -0.4601 H6            1 Compound
     116 H6          -1.0090   -10.0196    -0.8678 H6            1 Compound
     117 H6          -2.0604    -9.5316     1.0897 H6            1 Compound
     118 H6          -2.8337   -10.6730    -0.3879 H6            1 Compound
     119 H6          -3.9546    -8.8632     0.4044 H6            1 Compound
     120 H6          -4.2802    -9.9812     1.7642 H6            1 Compound
     121 H6          -5.5865   -11.4660     0.1747 H6            1 Compound
     122 H6          -5.2203   -10.3713    -1.1809 H6            1 Compound
     123 H6          -6.8080    -9.5090     1.3680 H6            1 Compound
     124 H6          -7.3697    -7.8071    -0.9862 H6            1 Compound
     125 H6          -5.6454    -8.0500    -0.9932 H6            1 Compound
     126 H6          -5.3898    -6.8739     1.1781 H6            1 Compound
     127 H6          -7.1827    -6.7126     1.3360 H6            1 Compound
     128 H6          -5.6462    -5.6844    -1.1587 H6            1 Compound
     129 H6          -7.3844    -5.4647    -0.7415 H6            1 Compound
     130 H6          -4.9331    -4.0556     0.4755 H6            1 Compound
     131 H6          -6.2557    -3.3900    -0.5173 H6            1 Compound
     132 H6          -6.6111    -3.8958     1.1643 H6            1 Compound
     133 H6          -8.2562   -11.1360    -0.1857 H6            1 Compound
     134 H6          -8.2494    -9.8259    -1.3747 H6            1 Compound
     135 H6          -9.6548    -9.9527     1.4008 H6            1 Compound
     136 H6          -9.4655    -8.3731     0.5776 H6            1 Compound
     137 H6         -11.1316   -10.7015    -0.6527 H6            1 Compound
     138 H6         -10.9580    -9.0267    -1.2703 H6            1 Compound
     139 H6         -12.5153    -9.9266     1.2727 H6            1 Compound
     140 H6         -12.2804    -8.2025     0.8257 H6            1 Compound
     141 H6         -13.7532   -10.2653    -0.9676 H6            1 Compound
     142 H6         -13.5647    -8.5024    -1.2807 H6            1 Compound
     143 H6         -15.1124    -8.0155     0.6897 H6            1 Compound
     144 H6         -15.3022    -9.7959     0.9439 H6            1 Compound
     145 H6         -15.8505    -9.0375    -0.5675 H6            1 Compound
     146 H6           2.0049   -13.0277     0.7609 H6            1 Compound
     147 H6           2.9827   -12.9297    -0.7688 H6            1 Compound
     148 H6           0.0201   -13.6857    -0.6922 H6            1 Compound
     149 H6           1.2282   -13.6488    -1.9888 H6            1 Compound
     150 H6           0.9938   -15.8537    -1.7455 H6            1 Compound
     151 H6           2.4705   -15.6924    -0.7901 H6            1 Compound
     152 H6          -0.3980   -16.4124     0.3053 H6            1 Compound
     153 H6           1.1271   -16.6664     1.1973 H6            1 Compound
     154 H6           1.7340   -18.5453    -0.5205 H6            1 Compound
     155 H6           0.2170   -18.2083    -1.3993 H6            1 Compound
     156 H6           0.4474   -19.6416     1.3476 H6            1 Compound
     157 H6          -1.8891   -20.0766     1.3613 H6            1 Compound
     158 H6          -1.5232   -18.3280     1.3343 H6            1 Compound
     159 H6          -2.3651   -18.2034    -1.0659 H6            1 Compound
     160 H6          -2.7470   -19.9666    -0.9992 H6            1 Compound
     161 H6          -4.1105   -19.5491     1.1192 H6            1 Compound
     162 H6          -3.7560   -17.7811     0.9626 H6            1 Compound
     163 H6          -5.3131   -17.6763    -1.0077 H6            1 Compound
     164 H6          -5.6562   -19.4563    -0.7924 H6            1 Compound
     165 H6          -6.0348   -18.2931     0.5052 H6            1 Compound
     166 H6          -0.3436   -21.0278    -1.3128 H6            1 Compound
     167 H6           1.1592   -21.2758    -0.3823 H6            1 Compound
     168 H6          -0.2683   -22.5275     1.4582 H6            1 Compound
     169 H6          -1.6915   -22.2958     0.3916 H6            1 Compound
     170 H6          -0.3397   -23.5166    -1.4250 H6            1 Compound
     171 H6           0.8315   -24.0329    -0.1791 H6            1 Compound
     172 H6          -0.4505   -25.7543    -1.2796 H6            1 Compound
     173 H6          -2.0362   -25.1325    -0.7740 H6            1 Compound
     174 H6          -1.7142   -26.2400     1.4450 H6            1 Compound
     175 H6           0.0056   -26.6295     1.0427 H6            1 Compound
     176 H6          -0.6842   -28.1571    -0.7950 H6            1 Compound
     177 H6          -2.4186   -27.7916    -0.5185 H6            1 Compound
     178 H6          -1.4603   -28.6433     0.7267 H6            1 Compound
     179 H5          -1.4590     5.2872     0.2725 H5            1 Compound
     180 H7          -3.8088     4.4575    -0.0240 H7            1 Compound
     181 H6           2.2654     3.5480     1.7562 H6            1 Compound
     182 H6           1.9435     1.8426     1.8090 H6            1 Compound
     183 H6           3.7677     3.3951     0.1566 H6            1 Compound
     184 H6           4.0169     2.0412     1.3834 H6            1 Compound
     185 H6           5.1247     2.3962    -1.2680 H6            1 Compound
     186 H6           5.0553     0.8414    -0.4123 H6            1 Compound
     187 H6           6.6077     3.3180     0.6198 H6            1 Compound
     188 H6           6.5565     1.7292     1.4557 H6            1 Compound
     189 H6           7.8385     0.6495    -0.5392 H6            1 Compound
     190 H6           7.6453     2.1942    -1.3662 H6            1 Compound
     191 H6           9.8455     2.1671    -1.2748 H6            1 Compound
     192 H6          10.6200     3.6442     0.9402 H6            1 Compound
     193 H6           8.8783     3.7308     1.1652 H6            1 Compound
     194 H6           8.8390     4.9054    -1.2039 H6            1 Compound
     195 H6          10.6381     4.7092    -1.2031 H6            1 Compound
     196 H6          10.5857     5.8853     1.1734 H6            1 Compound
     197 H6           8.8575     6.1979     0.8363 H6            1 Compound
     198 H6           9.8591     8.2216     0.4580 H6            1 Compound
     199 H6          11.3955     7.5600    -0.1263 H6            1 Compound
     200 H6           9.9626     7.7043    -1.2396 H6            1 Compound
     201 H6          10.5598     0.1842     0.2387 H6            1 Compound
     202 H6          10.8108     1.4325     1.4791 H6            1 Compound
     203 H6          12.3406     2.6416    -0.4759 H6            1 Compound
     204 H6          12.2109     1.0657    -1.2975 H6            1 Compound
     205 H6          13.5422     0.0602     0.7637 H6            1 Compound
     206 H6          13.7221     1.7570     1.3245 H6            1 Compound
     207 H6          15.0049     0.4752    -1.2109 H6            1 Compound
     208 H6          15.1262     2.2270    -0.8384 H6            1 Compound
     209 H6          16.3693     1.7658     1.2616 H6            1 Compound
     210 H6          16.2076    -0.0112     1.0210 H6            1 Compound
     211 H6          17.7836     0.0734    -0.9230 H6            1 Compound
     212 H6          17.9351     1.8675    -0.7522 H6            1 Compound
     213 H6          18.4941     0.7827     0.5440 H6            1 Compound
     214 H6           1.9199     3.9701    -1.3324 H6            1 Compound
     215 H6           0.1855     4.2663    -1.3415 H6            1 Compound
     216 H6           0.5538     5.6732     0.9679 H6            1 Compound
     217 H6           2.2748     5.5096     0.6522 H6            1 Compound
     218 H6           1.9311     7.0458    -1.4477 H6            1 Compound
     219 H6           0.2392     7.2835    -0.9119 H6            1 Compound
     220 H6           2.8374     8.3049     0.4843 H6            1 Compound
     221 H6           1.2367     8.5645     1.2166 H6            1 Compound
     222 H6           0.5942    10.2993    -0.4345 H6            1 Compound
     223 H6           1.8076     9.7455    -1.5619 H6            1 Compound
     224 H6           3.0352    11.3634    -1.2163 H6            1 Compound
     225 H6           4.1286    11.9603     1.2679 H6            1 Compound
     226 H6           3.8430    10.2303     1.1959 H6            1 Compound
     227 H6           5.3175    11.8731    -0.9987 H6            1 Compound
     228 H6           5.0705    10.0857    -1.0011 H6            1 Compound
     229 H6           6.3303     9.9459     1.1868 H6            1 Compound
     230 H6           6.5940    11.7350     1.1281 H6            1 Compound
     231 H6           7.9563    11.4618    -0.9617 H6            1 Compound
     232 H6           7.6761     9.6706    -0.9029 H6            1 Compound
     233 H6           8.5946    10.4886     0.4105 H6            1 Compound
     234 H6           2.1870    13.2735    -1.4849 H6            1 Compound
     235 H6           1.1848    13.1834    -0.0297 H6            1 Compound
     236 H6           3.0472    13.8976     1.3739 H6            1 Compound
     237 H6           4.2081    13.9997     0.0124 H6            1 Compound
     238 H6           3.7294    16.0017     1.3063 H6            1 Compound
     239 H6           2.0212    16.0810     0.8320 H6            1 Compound
     240 H6           2.7573    17.1958    -1.3241 H6            1 Compound
     241 H6           4.4862    16.8592    -0.9404 H6            1 Compound
     242 H6           4.4073    18.2708     1.1045 H6            1 Compound
     243 H6           2.6635    18.6167     0.8574 H6            1 Compound
     244 H6           3.2215    20.0589    -1.1223 H6            1 Compound
     245 H6           4.9843    19.6975    -0.8971 H6            1 Compound
     246 H6           4.0678    20.5595     0.3585 H6            1 Compound
@<TRIPOS>BOND
       1        2        1 1
       2       75        1 1
       3       91        1 1
       4       71        1 1
       5        3        2 1
       6        6        2 1
       7        4        3 1
       8       70        3 1
       9        5        4 1
      10        6        5 1
      11        7        5 1
      12      107        6 1
      13        8        7 1
      14       66        7 1
      15        9        8 1
      16      108        8 1
      17       10        9 1
      18       11        9 1
      19       12       11 1
      20       65       11 1
      21       13       12 1
      22       32       12 1
      23       14       13 1
      24      109       13 1
      25       15       14 1
      26       31       14 1
      27       16       15 1
      28       33       15 1
      29       49       15 1
      30       17       16 1
      31       20       16 1
      32       18       17 1
      33       31       17 1
      34       19       18 1
      35       20       19 1
      36       21       19 1
      37      110       20 1
      38       22       21 1
      39       30       21 1
      40       23       22 1
      41       24       22 1
      42       25       24 1
      43      111       24 1
      44       26       25 1
      45      112       25 1
      46       27       26 1
      47       30       26 1
      48       28       27 1
      49       29       28 1
      50       30       29 1
      51       32       31 1
      52       34       33 1
      53      113       33 1
      54      114       33 1
      55       35       34 1
      56      115       34 1
      57      116       34 1
      58       36       35 1
      59      117       35 1
      60      118       35 1
      61       37       36 1
      62      119       36 1
      63      120       36 1
      64       38       37 1
      65      121       37 1
      66      122       37 1
      67       39       38 1
      68       43       38 1
      69      123       38 1
      70       40       39 1
      71      124       39 1
      72      125       39 1
      73       41       40 1
      74      126       40 1
      75      127       40 1
      76       42       41 1
      77      128       41 1
      78      129       41 1
      79      130       42 1
      80      131       42 1
      81      132       42 1
      82       44       43 1
      83      133       43 1
      84      134       43 1
      85       45       44 1
      86      135       44 1
      87      136       44 1
      88       46       45 1
      89      137       45 1
      90      138       45 1
      91       47       46 1
      92      139       46 1
      93      140       46 1
      94       48       47 1
      95      141       47 1
      96      142       47 1
      97      143       48 1
      98      144       48 1
      99      145       48 1
     100       50       49 1
     101      146       49 1
     102      147       49 1
     103       51       50 1
     104      148       50 1
     105      149       50 1
     106       52       51 1
     107      150       51 1
     108      151       51 1
     109       53       52 1
     110      152       52 1
     111      153       52 1
     112       54       53 1
     113      154       53 1
     114      155       53 1
     115       55       54 1
     116       59       54 1
     117      156       54 1
     118       56       55 1
     119      157       55 1
     120      158       55 1
     121       57       56 1
     122      159       56 1
     123      160       56 1
     124       58       57 1
     125      161       57 1
     126      162       57 1
     127      163       58 1
     128      164       58 1
     129      165       58 1
     130       60       59 1
     131      166       59 1
     132      167       59 1
     133       61       60 1
     134      168       60 1
     135      169       60 1
     136       62       61 1
     137      170       61 1
     138      171       61 1
     139       63       62 1
     140      172       62 1
     141      173       62 1
     142       64       63 1
     143      174       63 1
     144      175       63 1
     145      176       64 1
     146      177       64 1
     147      178       64 1
     148       66       65 1
     149       69       65 1
     150       67       66 1
     151       68       67 1
     152       69       68 1
     153       71       70 1
     154       74       70 1
     155       72       71 1
     156       73       72 1
     157      179       72 1
     158       74       73 1
     159      180       73 1
     160       76       75 1
     161      181       75 1
     162      182       75 1
     163       77       76 1
     164      183       76 1
     165      184       76 1
     166       78       77 1
     167      185       77 1
     168      186       77 1
     169       79       78 1
     170      187       78 1
     171      188       78 1
     172       80       79 1
     173      189       79 1
     174      190       79 1
     175       81       80 1
     176       85       80 1
     177      191       80 1
     178       82       81 1
     179      192       81 1
     180      193       81 1
     181       83       82 1
     182      194       82 1
     183      195       82 1
     184       84       83 1
     185      196       83 1
     186      197       83 1
     187      198       84 1
     188      199       84 1
     189      200       84 1
     190       86       85 1
     191      201       85 1
     192      202       85 1
     193       87       86 1
     194      203       86 1
     195      204       86 1
     196       88       87 1
     197      205       87 1
     198      206       87 1
     199       89       88 1
     200      207       88 1
     201      208       88 1
     202       90       89 1
     203      209       89 1
     204      210       89 1
     205      211       90 1
     206      212       90 1
     207      213       90 1
     208       92       91 1
     209      214       91 1
     210      215       91 1
     211       93       92 1
     212      216       92 1
     213      217       92 1
     214       94       93 1
     215      218       93 1
     216      219       93 1
     217       95       94 1
     218      220       94 1
     219      221       94 1
     220       96       95 1
     221      222       95 1
     222      223       95 1
     223       97       96 1
     224      101       96 1
     225      224       96 1
     226       98       97 1
     227      225       97 1
     228      226       97 1
     229       99       98 1
     230      227       98 1
     231      228       98 1
     232      100       99 1
     233      229       99 1
     234      230       99 1
     235      231      100 1
     236      232      100 1
     237      233      100 1
     238      102      101 1
     239      234      101 1
     240      235      101 1
     241      103      102 1
     242      236      102 1
     243      237      102 1
     244      104      103 1
     245      238      103 1
     246      239      103 1
     247      105      104 1
     248      240      104 1
     249      241      104 1
     250      106      105 1
     251      242      105 1
     252      243      105 1
     253      244      106 1
     254      245      106 1
     255      246      106 1
@<TRIPOS>SUBSTRUCTURE
       1 Compound        1 RESIDUE    0 **** ROOT      0
