@<TRIPOS>MOLECULE
Compound
234 243 1 0 1
SMALL
NO_CHARGES
@<TRIPOS>CRYSIN
   35.0102    50.3198     8.9878    90.0000    90.0000    90.0000  1  1
@<TRIPOS>ATOM
       1 C0           1.0732     2.7370     0.0750 C0            1 Compound
       2 C1           0.7004     1.3574    -0.2160 C1            1 Compound
       3 C1          -0.5491     1.0373     0.1766 C1            1 Compound
       4 S2          -1.0220    -0.5660    -0.0431 S2            1 Compound
       5 C1           0.5425    -1.1204    -0.3972 C1            1 Compound
       6 C1           1.3677     0.0826    -0.5154 C1            1 Compound
       7 C1           0.9202    -2.6511    -0.3242 C1            1 Compound
       8 C1          -0.0606    -3.6889    -0.1979 C1            1 Compound
       9 C1           0.2520    -5.0908    -0.0107 C1            1 Compound
      10 F3          -0.7810    -5.9585     0.1135 F3            1 Compound
      11 C1           1.5858    -5.5842     0.0902 C1            1 Compound
      12 C1           1.9652    -7.1149     0.3750 C1            1 Compound
      13 C1           1.2008    -8.2830     0.4174 C1            1 Compound
      14 C1           1.9415    -9.6275     0.7390 C1            1 Compound
      15 C0           1.7727   -10.9837     0.1706 C0            1 Compound
      16 C1           3.2328   -11.1249    -0.3927 C1            1 Compound
      17 C1           4.0028   -10.1218     0.1233 C1            1 Compound
      18 C1           3.3356    -9.2569     1.0532 C1            1 Compound
      19 S2           3.6848    -7.5153     0.6801 S2            1 Compound
      20 S2           5.6301   -10.2998    -0.0576 S2            1 Compound
      21 C1           5.5246   -11.8325    -0.7180 C1            1 Compound
      22 C1           4.1177   -12.1592    -0.8900 C1            1 Compound
      23 C1           6.7853   -12.6906    -0.6915 C1            1 Compound
      24 C1           8.0994   -12.1127    -0.5958 C1            1 Compound
      25 F3           8.2996   -10.7734    -0.6673 F3            1 Compound
      26 C1           9.2501   -12.9049    -0.3973 C1            1 Compound
      27 C1           9.1558   -14.2873    -0.2744 C1            1 Compound
      28 C1           7.9029   -14.8760    -0.3641 C1            1 Compound
      29 N4           7.7134   -16.2077    -0.2183 N4            1 Compound
      30 S2           6.0770   -16.3323    -0.3516 S2            1 Compound
      31 N4           5.5623   -14.7881    -0.5892 N4            1 Compound
      32 C1           6.7213   -14.0904    -0.5776 C1            1 Compound
      33 C0           0.2888   -10.9916    -0.5461 C0            1 Compound
      34 C0          -1.3198   -10.7780    -0.0914 C0            1 Compound
      35 C0          -2.5023   -10.6225    -1.1419 C0            1 Compound
      36 C0          -3.8705    -9.9311    -0.5967 C0            1 Compound
      37 C0          -5.3023   -10.6568    -0.4866 C0            1 Compound
      38 C0          -5.2656   -11.8869     0.4655 C0            1 Compound
      39 C0          -5.2759   -13.2044    -0.3334 C0            1 Compound
      40 C0          -5.5281   -14.4143     0.5735 C0            1 Compound
      41 C0          -5.6402   -15.6980    -0.2447 C0            1 Compound
      42 C0          -6.5414    -9.6509    -0.1772 C0            1 Compound
      43 C0          -7.9112   -10.2788     0.3611 C0            1 Compound
      44 C0          -9.2428    -9.4170     0.4646 C0            1 Compound
      45 C0         -10.2770    -9.7326    -0.6603 C0            1 Compound
      46 C0         -11.6400    -8.9619    -0.6856 C0            1 Compound
      47 C0         -12.7085    -9.3131     0.3692 C0            1 Compound
      48 C0           1.7631   -12.4182     1.0423 C0            1 Compound
      49 C0           1.0156   -13.7328     0.3929 C0            1 Compound
      50 C0           1.4700   -15.2497     0.7972 C0            1 Compound
      51 C0           0.8548   -16.5143    -0.0296 C0            1 Compound
      52 C0           1.0321   -18.0297     0.5438 C0            1 Compound
      53 C0           2.4838   -18.4181     0.9550 C0            1 Compound
      54 C0           3.4912   -18.8156    -0.1529 C0            1 Compound
      55 C0           4.7894   -19.3275     0.5160 C0            1 Compound
      56 C0           5.8708   -19.7652    -0.4750 C0            1 Compound
      57 C0           0.3743   -19.2203    -0.3263 C0            1 Compound
      58 C0           0.3533   -20.6631     0.3560 C0            1 Compound
      59 C0          -0.2305   -21.8538    -0.4946 C0            1 Compound
      60 C0          -0.2807   -23.2163     0.2854 C0            1 Compound
      61 C0          -0.7734   -24.4122    -0.5789 C0            1 Compound
      62 C0          -0.8744   -25.7338     0.2084 C0            1 Compound
      63 C1           2.5776    -4.5397    -0.0512 C1            1 Compound
      64 C1           2.2462    -3.1249    -0.2567 C1            1 Compound
      65 N4           3.3074    -2.2827    -0.3353 N4            1 Compound
      66 S2           4.5961    -3.2904    -0.1707 S2            1 Compound
      67 N4           3.9138    -4.7801     0.0125 N4            1 Compound
      68 C1          -1.1158     1.9978     0.8087 C1            1 Compound
      69 C1          -0.1454     3.1001     1.0579 C1            1 Compound
      70 C1          -1.1707     4.2255     0.9032 C1            1 Compound
      71 C1          -2.5070     3.8371     1.0121 C1            1 Compound
      72 S2          -2.7827     2.1090     1.3939 S2            1 Compound
      73 C0           2.6616     2.6220     0.3532 C0            1 Compound
      74 C0           4.1035     2.2001    -0.2767 C0            1 Compound
      75 C0           5.3232     2.3014     0.6561 C0            1 Compound
      76 C0           6.6748     1.8313    -0.0432 C0            1 Compound
      77 C0           7.9479     2.4726     0.6434 C0            1 Compound
      78 C0           8.2040     3.9194     0.1366 C0            1 Compound
      79 C0           8.4708     5.3296    -0.4244 C0            1 Compound
      80 C0           8.4133     6.4311     0.6387 C0            1 Compound
      81 C0           8.6235     7.7927    -0.0188 C0            1 Compound
      82 C0           9.3154     1.6582     0.7127 C0            1 Compound
      83 C0          10.6358     1.8700    -0.1529 C0            1 Compound
      84 C0          11.8036     1.0974     0.5906 C0            1 Compound
      85 C0          13.3523     1.3472     0.5271 C0            1 Compound
      86 C0          14.2008     1.2566    -0.7563 C0            1 Compound
      87 C0          15.6987     1.1486    -0.3671 C0            1 Compound
      88 C0           1.0037     4.1068    -0.9017 C0            1 Compound
      89 C0           1.5610     5.4740    -0.1191 C0            1 Compound
      90 C0           1.0410     7.0297    -0.0635 C0            1 Compound
      91 C0           1.8710     8.3583    -0.5015 C0            1 Compound
      92 C0           1.4457     9.7202     0.3216 C0            1 Compound
      93 C0          -0.0669    10.0840     0.1873 C0            1 Compound
      94 C0          -1.3256    10.7859    -0.4127 C0            1 Compound
      95 C0          -2.4408    10.9120     0.6369 C0            1 Compound
      96 C0          -3.7395    11.4038    -0.0029 C0            1 Compound
      97 C0           2.3603    11.0607     0.3633 C0            1 Compound
      98 C0           2.0055    12.2941    -0.5497 C0            1 Compound
      99 C0           2.7442    13.7007    -0.2695 C0            1 Compound
     100 C0           3.1986    15.2691    -0.2640 C0            1 Compound
     101 C0           3.7467    16.7452    -0.4861 C0            1 Compound
     102 C0           3.5131    17.7824     0.6253 C0            1 Compound
     103 H5           2.4132     0.0034    -0.6909 H5            1 Compound
     104 H5          -1.1070    -3.4171    -0.2217 H5            1 Compound
     105 H5           0.1527    -8.2471     0.1885 H5            1 Compound
     106 H5           3.7697   -13.1404    -1.1722 H5            1 Compound
     107 H5          10.2272   -12.4395    -0.3115 H5            1 Compound
     108 H5          10.0440   -14.8863    -0.0934 H5            1 Compound
     109 H6           0.1308   -10.9262     0.5334 H6            1 Compound
     110 H6           0.3907   -10.1460    -1.2595 H6            1 Compound
     111 H6          -1.7077   -11.5821     0.6047 H6            1 Compound
     112 H6          -1.4230    -9.7845     0.4448 H6            1 Compound
     113 H6          -2.7006   -11.5506    -1.7150 H6            1 Compound
     114 H6          -2.0886    -9.8936    -1.8718 H6            1 Compound
     115 H6          -3.6543    -9.4375     0.3762 H6            1 Compound
     116 H6          -4.0614    -9.0879    -1.2939 H6            1 Compound
     117 H6          -5.5633   -11.0354    -1.4993 H6            1 Compound
     118 H6          -6.1832   -11.9403     1.0658 H6            1 Compound
     119 H6          -4.4383   -11.8242     1.2023 H6            1 Compound
     120 H6          -6.1214   -13.1697    -1.0602 H6            1 Compound
     121 H6          -4.3270   -13.3169    -0.8980 H6            1 Compound
     122 H6          -4.7074   -14.5087     1.3141 H6            1 Compound
     123 H6          -6.4896   -14.2741     1.1180 H6            1 Compound
     124 H6          -6.4791   -15.6217    -0.9715 H6            1 Compound
     125 H6          -4.6965   -15.8873    -0.7969 H6            1 Compound
     126 H6          -5.8426   -16.5540     0.4326 H6            1 Compound
     127 H6          -6.7434    -9.0901    -1.1167 H6            1 Compound
     128 H6          -6.2329    -8.9021     0.5828 H6            1 Compound
     129 H6          -8.1545   -11.2284    -0.1603 H6            1 Compound
     130 H6          -7.6887   -10.5321     1.4185 H6            1 Compound
     131 H6          -9.7685    -9.7044     1.4046 H6            1 Compound
     132 H6          -9.0090    -8.3341     0.5455 H6            1 Compound
     133 H6         -10.5168   -10.8198    -0.6363 H6            1 Compound
     134 H6          -9.7761    -9.5082    -1.6208 H6            1 Compound
     135 H6         -12.1207    -9.2202    -1.6559 H6            1 Compound
     136 H6         -11.4687    -7.8658    -0.6800 H6            1 Compound
     137 H6         -12.9619   -10.3954     0.3485 H6            1 Compound
     138 H6         -12.4173    -9.0120     1.3943 H6            1 Compound
     139 H6         -13.6515    -8.7675     0.1164 H6            1 Compound
     140 H6           1.5407   -12.2565     2.1159 H6            1 Compound
     141 H6           2.7945   -12.8277     1.1359 H6            1 Compound
     142 H6           1.1523   -13.6731    -0.7037 H6            1 Compound
     143 H6          -0.0732   -13.6310     0.6000 H6            1 Compound
     144 H6           2.5708   -15.3190     0.6612 H6            1 Compound
     145 H6           1.2518   -15.3931     1.8746 H6            1 Compound
     146 H6          -0.2445   -16.3610    -0.0898 H6            1 Compound
     147 H6           1.2450   -16.4699    -1.0690 H6            1 Compound
     148 H6           0.4655   -18.0065     1.4990 H6            1 Compound
     149 H6           2.3953   -19.3013     1.6226 H6            1 Compound
     150 H6           2.9128   -17.6082     1.5775 H6            1 Compound
     151 H6           3.0922   -19.6440    -0.7767 H6            1 Compound
     152 H6           3.6951   -17.9463    -0.8116 H6            1 Compound
     153 H6           4.5525   -20.2051     1.1572 H6            1 Compound
     154 H6           5.2035   -18.5327     1.1704 H6            1 Compound
     155 H6           5.5215   -20.6161    -1.0940 H6            1 Compound
     156 H6           6.1694   -18.9381    -1.1469 H6            1 Compound
     157 H6           6.7714   -20.0883     0.0936 H6            1 Compound
     158 H6           0.9061   -19.3045    -1.2986 H6            1 Compound
     159 H6          -0.6785   -18.9569    -0.5596 H6            1 Compound
     160 H6          -0.2381   -20.5908     1.2924 H6            1 Compound
     161 H6           1.3853   -20.9729     0.6169 H6            1 Compound
     162 H6           0.4020   -21.9952    -1.3981 H6            1 Compound
     163 H6          -1.2637   -21.6143    -0.8242 H6            1 Compound
     164 H6          -0.9635   -23.1104     1.1566 H6            1 Compound
     165 H6           0.7324   -23.4721     0.6655 H6            1 Compound
     166 H6          -0.0689   -24.5750    -1.4231 H6            1 Compound
     167 H6          -1.7798   -24.1945    -0.9953 H6            1 Compound
     168 H6          -1.6161   -25.6542     1.0320 H6            1 Compound
     169 H6           0.1077   -26.0306     0.6345 H6            1 Compound
     170 H6          -1.2105   -26.5551    -0.4661 H6            1 Compound
     171 H5          -0.9462     5.2624     0.7290 H5            1 Compound
     172 H7          -3.3268     4.5385     0.8979 H7            1 Compound
     173 H6           2.9238     3.5721     0.8411 H6            1 Compound
     174 H6           2.6085     2.5486    -0.7403 H6            1 Compound
     175 H6           4.4505     2.8874    -1.1194 H6            1 Compound
     176 H6           4.1208     1.1606    -0.6726 H6            1 Compound
     177 H6           5.1736     1.7078     1.5836 H6            1 Compound
     178 H6           5.3596     3.3658     0.9543 H6            1 Compound
     179 H6           6.6867     2.0882    -1.1267 H6            1 Compound
     180 H6           6.6885     0.7216     0.0135 H6            1 Compound
     181 H6           7.6421     2.4752     1.7167 H6            1 Compound
     182 H6           8.3267     3.5213    -0.8945 H6            1 Compound
     183 H6           7.1839     4.2389     0.4171 H6            1 Compound
     184 H6           9.4925     5.3465    -0.8728 H6            1 Compound
     185 H6           7.7330     5.5676    -1.2331 H6            1 Compound
     186 H6           7.4205     6.4325     1.1382 H6            1 Compound
     187 H6           9.2003     6.2543     1.4036 H6            1 Compound
     188 H6           7.8186     7.9795    -0.7632 H6            1 Compound
     189 H6           9.6061     7.8274    -0.5367 H6            1 Compound
     190 H6           8.5892     8.5924     0.7483 H6            1 Compound
     191 H6           9.6801     2.0088     1.7008 H6            1 Compound
     192 H6           9.1007     0.5750     0.8321 H6            1 Compound
     193 H6          10.5282     1.4996    -1.1988 H6            1 Compound
     194 H6          10.8739     2.9533    -0.1881 H6            1 Compound
     195 H6          11.6135     0.0138     0.4544 H6            1 Compound
     196 H6          11.6615     1.3122     1.6712 H6            1 Compound
     197 H6          13.5984     2.3220     1.0026 H6            1 Compound
     198 H6          13.7535     0.5555     1.2043 H6            1 Compound
     199 H6          14.0477     2.1737    -1.3644 H6            1 Compound
     200 H6          13.9494     0.3623    -1.3612 H6            1 Compound
     201 H6          15.8894     0.1908     0.1707 H6            1 Compound
     202 H6          16.0113     1.9775     0.3066 H6            1 Compound
     203 H6          16.3586     1.1622    -1.2603 H6            1 Compound
     204 H6           1.5736     4.0187    -1.8520 H6            1 Compound
     205 H6          -0.0336     4.2687    -1.2623 H6            1 Compound
     206 H6           1.2965     5.1864     0.9179 H6            1 Compound
     207 H6           2.6662     5.4866    -0.0652 H6            1 Compound
     208 H6          -0.0320     7.1028    -0.3280 H6            1 Compound
     209 H6           1.0537     7.2148     1.0363 H6            1 Compound
     210 H6           2.9379     8.1781    -0.2545 H6            1 Compound
     211 H6           1.8021     8.5091    -1.6002 H6            1 Compound
     212 H6           1.5819     9.3673     1.3687 H6            1 Compound
     213 H6           0.2310    10.0800    -0.8839 H6            1 Compound
     214 H6          -0.5273     9.1364     0.5203 H6            1 Compound
     215 H6          -1.7513    10.1852    -1.2603 H6            1 Compound
     216 H6          -1.1060    11.8098    -0.7930 H6            1 Compound
     217 H6          -2.1257    11.6124     1.4416 H6            1 Compound
     218 H6          -2.6478     9.9190     1.0907 H6            1 Compound
     219 H6          -4.0722    10.6827    -0.7819 H6            1 Compound
     220 H6          -3.5990    12.4009    -0.4701 H6            1 Compound
     221 H6          -4.5367    11.4724     0.7667 H6            1 Compound
     222 H6           2.2216    11.4831     1.3852 H6            1 Compound
     223 H6           3.4372    10.7982     0.2860 H6            1 Compound
     224 H6           2.1547    11.9495    -1.6031 H6            1 Compound
     225 H6           0.9266    12.4925    -0.3739 H6            1 Compound
     226 H6           2.1390    13.9500    -1.1885 H6            1 Compound
     227 H6           3.7734    13.2898    -0.3934 H6            1 Compound
     228 H6           3.6131    15.1681    -1.3088 H6            1 Compound
     229 H6           2.1658    15.6621    -0.0723 H6            1 Compound
     230 H6           3.2715    17.2052    -1.3942 H6            1 Compound
     231 H6           4.8524    16.7311    -0.6541 H6            1 Compound
     232 H6           4.0366    17.5083     1.5622 H6            1 Compound
     233 H6           2.4315    17.9389     0.8185 H6            1 Compound
     234 H6           3.9257    18.7647     0.2858 H6            1 Compound
@<TRIPOS>BOND
       1        2        1 1
       2       73        1 1
       3       88        1 1
       4       69        1 1
       5        3        2 1
       6        6        2 1
       7        4        3 1
       8       68        3 1
       9        5        4 1
      10        6        5 1
      11        7        5 1
      12      103        6 1
      13        8        7 1
      14       64        7 1
      15        9        8 1
      16      104        8 1
      17       10        9 1
      18       11        9 1
      19       12       11 1
      20       63       11 1
      21       13       12 1
      22       19       12 1
      23       14       13 1
      24      105       13 1
      25       15       14 1
      26       18       14 1
      27       16       15 1
      28       33       15 1
      29       48       15 1
      30       17       16 1
      31       22       16 1
      32       18       17 1
      33       20       17 1
      34       19       18 1
      35       21       20 1
      36       22       21 1
      37       23       21 1
      38      106       22 1
      39       24       23 1
      40       32       23 1
      41       25       24 1
      42       26       24 1
      43       27       26 1
      44      107       26 1
      45       28       27 1
      46      108       27 1
      47       29       28 1
      48       32       28 1
      49       30       29 1
      50       31       30 1
      51       32       31 1
      52       34       33 1
      53      109       33 1
      54      110       33 1
      55       35       34 1
      56      111       34 1
      57      112       34 1
      58       36       35 1
      59      113       35 1
      60      114       35 1
      61       37       36 1
      62      115       36 1
      63      116       36 1
      64       38       37 1
      65       42       37 1
      66      117       37 1
      67       39       38 1
      68      118       38 1
      69      119       38 1
      70       40       39 1
      71      120       39 1
      72      121       39 1
      73       41       40 1
      74      122       40 1
      75      123       40 1
      76      124       41 1
      77      125       41 1
      78      126       41 1
      79       43       42 1
      80      127       42 1
      81      128       42 1
      82       44       43 1
      83      129       43 1
      84      130       43 1
      85       45       44 1
      86      131       44 1
      87      132       44 1
      88       46       45 1
      89      133       45 1
      90      134       45 1
      91       47       46 1
      92      135       46 1
      93      136       46 1
      94      137       47 1
      95      138       47 1
      96      139       47 1
      97       49       48 1
      98      140       48 1
      99      141       48 1
     100       50       49 1
     101      142       49 1
     102      143       49 1
     103       51       50 1
     104      144       50 1
     105      145       50 1
     106       52       51 1
     107      146       51 1
     108      147       51 1
     109       53       52 1
     110       57       52 1
     111      148       52 1
     112       54       53 1
     113      149       53 1
     114      150       53 1
     115       55       54 1
     116      151       54 1
     117      152       54 1
     118       56       55 1
     119      153       55 1
     120      154       55 1
     121      155       56 1
     122      156       56 1
     123      157       56 1
     124       58       57 1
     125      158       57 1
     126      159       57 1
     127       59       58 1
     128      160       58 1
     129      161       58 1
     130       60       59 1
     131      162       59 1
     132      163       59 1
     133       61       60 1
     134      164       60 1
     135      165       60 1
     136       62       61 1
     137      166       61 1
     138      167       61 1
     139      168       62 1
     140      169       62 1
     141      170       62 1
     142       64       63 1
     143       67       63 1
     144       65       64 1
     145       66       65 1
     146       67       66 1
     147       69       68 1
     148       72       68 1
     149       70       69 1
     150       71       70 1
     151      171       70 1
     152       72       71 1
     153      172       71 1
     154       74       73 1
     155      173       73 1
     156      174       73 1
     157       75       74 1
     158      175       74 1
     159      176       74 1
     160       76       75 1
     161      177       75 1
     162      178       75 1
     163       77       76 1
     164      179       76 1
     165      180       76 1
     166       78       77 1
     167       82       77 1
     168      181       77 1
     169       79       78 1
     170      182       78 1
     171      183       78 1
     172       80       79 1
     173      184       79 1
     174      185       79 1
     175       81       80 1
     176      186       80 1
     177      187       80 1
     178      188       81 1
     179      189       81 1
     180      190       81 1
     181       83       82 1
     182      191       82 1
     183      192       82 1
     184       84       83 1
     185      193       83 1
     186      194       83 1
     187       85       84 1
     188      195       84 1
     189      196       84 1
     190       86       85 1
     191      197       85 1
     192      198       85 1
     193       87       86 1
     194      199       86 1
     195      200       86 1
     196      201       87 1
     197      202       87 1
     198      203       87 1
     199       89       88 1
     200      204       88 1
     201      205       88 1
     202       90       89 1
     203      206       89 1
     204      207       89 1
     205       91       90 1
     206      208       90 1
     207      209       90 1
     208       92       91 1
     209      210       91 1
     210      211       91 1
     211       93       92 1
     212       97       92 1
     213      212       92 1
     214       94       93 1
     215      213       93 1
     216      214       93 1
     217       95       94 1
     218      215       94 1
     219      216       94 1
     220       96       95 1
     221      217       95 1
     222      218       95 1
     223      219       96 1
     224      220       96 1
     225      221       96 1
     226       98       97 1
     227      222       97 1
     228      223       97 1
     229       99       98 1
     230      224       98 1
     231      225       98 1
     232      100       99 1
     233      226       99 1
     234      227       99 1
     235      101      100 1
     236      228      100 1
     237      229      100 1
     238      102      101 1
     239      230      101 1
     240      231      101 1
     241      232      102 1
     242      233      102 1
     243      234      102 1
@<TRIPOS>SUBSTRUCTURE
       1 Compound        1 RESIDUE    0 **** ROOT      0
