@<TRIPOS>MOLECULE
Compound
222 231 1 0 1
SMALL
NO_CHARGES
@<TRIPOS>CRYSIN
   39.8911    30.9221    11.0097    90.0000    90.0000    90.0000  1  1
@<TRIPOS>ATOM
       1 C0           0.5862     3.1090     0.1957 C0            1 Compound
       2 C1          -0.7763     3.3437    -0.2432 C1            1 Compound
       3 C1          -1.5721     2.2532    -0.0614 C1            1 Compound
       4 C1          -0.9966     1.2946     0.5533 C1            1 Compound
       5 C1           0.3166     1.7433     1.0487 C1            1 Compound
       6 C1           1.0005     0.3736     0.8921 C1            1 Compound
       7 C1           0.1325    -0.7192     0.7656 C1            1 Compound
       8 S2          -1.6085    -0.3341     0.9026 S2            1 Compound
       9 S2          -3.1935     2.4066    -0.4228 S2            1 Compound
      10 C1          -3.1300     4.0868    -0.5837 C1            1 Compound
      11 C1          -1.7017     4.4522    -0.5222 C1            1 Compound
      12 C1          -4.4418     4.9630    -0.5745 C1            1 Compound
      13 C1          -4.3939     6.3713    -0.6306 C1            1 Compound
      14 C1          -5.5497     7.2240    -0.5757 C1            1 Compound
      15 F3          -5.3473     8.5491    -0.6348 F3            1 Compound
      16 C1          -6.8839     6.7541    -0.4684 C1            1 Compound
      17 C1          -8.1478     7.7291    -0.4779 C1            1 Compound
      18 C1          -8.2181     9.1227    -0.5795 C1            1 Compound
      19 C1          -9.6333     9.7719    -0.6427 C1            1 Compound
      20 C0         -10.2989    10.9564    -0.0840 C0            1 Compound
      21 C1         -11.6124    10.2581     0.3637 C1            1 Compound
      22 C1         -11.6556     8.9818    -0.0727 C1            1 Compound
      23 S2         -13.1224     8.2186     0.0087 S2            1 Compound
      24 C1         -13.9500     9.5693     0.5312 C1            1 Compound
      25 C1         -12.9154    10.6421     0.7033 C1            1 Compound
      26 C1         -15.4922     9.5785     0.4600 C1            1 Compound
      27 C1         -16.2315     8.3530     0.3416 C1            1 Compound
      28 F3         -15.6257     7.1398     0.3857 F3            1 Compound
      29 C1         -17.6311     8.3338     0.1666 C1            1 Compound
      30 C1         -18.3571     9.5168     0.0849 C1            1 Compound
      31 C1         -17.6723    10.7257     0.1946 C1            1 Compound
      32 N4         -18.3065    11.9202     0.0822 N4            1 Compound
      33 S2         -17.0567    12.9841     0.2207 S2            1 Compound
      34 N4         -15.7264    12.0166     0.4119 N4            1 Compound
      35 C1         -16.2538    10.7704     0.3747 C1            1 Compound
      36 C1         -10.5705     8.6028    -0.9109 C1            1 Compound
      37 S2          -9.7946     7.0365    -0.3465 S2            1 Compound
      38 C0          -9.1518    11.8715     0.6646 C0            1 Compound
      39 C0          -7.5814    12.0488     0.8832 C0            1 Compound
      40 C0          -6.7547    13.2933     0.2101 C0            1 Compound
      41 C0          -5.1713    13.2056     0.4341 C0            1 Compound
      42 C0          -4.5599    12.1499    -0.5692 C0            1 Compound
      43 C0          -3.4257    11.3008     0.0871 C0            1 Compound
      44 C0          -2.7260     9.9743    -0.3518 C0            1 Compound
      45 C0          -2.5139     8.9861     0.8230 C0            1 Compound
      46 C0          -4.2490    14.5210     0.6836 C0            1 Compound
      47 C0          -3.0823    15.0606    -0.2660 C0            1 Compound
      48 C0          -2.0778    15.9841     0.5494 C0            1 Compound
      49 C0          -0.8582    16.6782    -0.1596 C0            1 Compound
      50 C0           0.0578    17.3679     0.9055 C0            1 Compound
      51 C0           1.1671    18.2799     0.3510 C0            1 Compound
      52 C0         -11.0053    12.1568    -1.0136 C0            1 Compound
      53 C0         -11.4491    13.5599    -0.2215 C0            1 Compound
      54 C0         -12.3917    14.6935    -0.9143 C0            1 Compound
      55 C0         -12.4499    16.3091    -0.5002 C0            1 Compound
      56 C0         -11.2808    16.7483     0.4287 C0            1 Compound
      57 C0         -10.0951    17.3224    -0.3625 C0            1 Compound
      58 C0          -8.9168    17.6623     0.5594 C0            1 Compound
      59 C0          -7.8122    18.4085    -0.1880 C0            1 Compound
      60 C0         -13.8002    17.1515    -0.1236 C0            1 Compound
      61 C0         -13.7509    18.7666    -0.3894 C0            1 Compound
      62 C0         -14.7942    19.7819     0.3121 C0            1 Compound
      63 C0         -14.8561    21.2453    -0.3348 C0            1 Compound
      64 C0         -16.1698    22.1292    -0.1617 C0            1 Compound
      65 C0         -16.0818    23.5669     0.4244 C0            1 Compound
      66 C1          -6.9550     5.3189    -0.3824 C1            1 Compound
      67 C1          -5.7739     4.4501    -0.4278 C1            1 Compound
      68 N4          -6.0422     3.1144    -0.3203 N4            1 Compound
      69 S2          -7.6814     3.0585    -0.1681 S2            1 Compound
      70 N4          -8.1383     4.6481    -0.2347 N4            1 Compound
      71 C0           1.1665     4.5094     0.7553 C0            1 Compound
      72 C0           0.7762     6.0722     0.9659 C0            1 Compound
      73 C0           0.9446     7.3310    -0.0463 C0            1 Compound
      74 C0           1.7427     8.6098     0.6672 C0            1 Compound
      75 C0           3.2685     8.3098     1.0024 C0            1 Compound
      76 C0           4.7230     8.1146     0.4534 C0            1 Compound
      77 C0           5.9836     8.6728     1.1981 C0            1 Compound
      78 C0           6.9646     7.9017     2.1319 C0            1 Compound
      79 C0           1.5559    10.1919     0.3800 C0            1 Compound
      80 C0           2.3913    11.1458    -0.5771 C0            1 Compound
      81 C0           2.4475    12.6271     0.0103 C0            1 Compound
      82 C0           3.2014    13.7264    -0.8114 C0            1 Compound
      83 C0           3.3771    15.0498    -0.0011 C0            1 Compound
      84 C0           4.1005    16.1670    -0.7770 C0            1 Compound
      85 C0           1.8858     2.5539    -0.6905 C0            1 Compound
      86 C0           3.4807     2.7797    -1.0457 C0            1 Compound
      87 C0           4.7418     2.1439    -0.1525 C0            1 Compound
      88 C0           6.2377     2.6153    -0.5957 C0            1 Compound
      89 C0           6.3034     4.1528    -0.2283 C0            1 Compound
      90 C0           7.6168     4.9699    -0.5018 C0            1 Compound
      91 C0           7.3357     6.3345    -1.2003 C0            1 Compound
      92 C0           7.6412     7.5503    -2.1027 C0            1 Compound
      93 C0           7.6584     1.8111    -0.1157 C0            1 Compound
      94 C0           9.2929     1.9401    -0.5163 C0            1 Compound
      95 C0          10.7480     1.2543    -0.4042 C0            1 Compound
      96 C0          11.9515     1.4229     0.6110 C0            1 Compound
      97 C0          13.2961     1.1603    -0.1919 C0            1 Compound
      98 C0          14.6408     1.1906     0.5496 C0            1 Compound
      99 H5           2.0703     0.2118     0.8745 H5            1 Compound
     100 H6           0.4751    -1.7400     0.6197 H6            1 Compound
     101 H5          -1.3860     5.4763    -0.5517 H5            1 Compound
     102 H5          -3.4276     6.8264    -0.7091 H5            1 Compound
     103 H5          -7.3353     9.6920    -0.6038 H5            1 Compound
     104 H5         -13.2802    11.6450     0.9215 H5            1 Compound
     105 H5         -18.1579     7.3902     0.0747 H5            1 Compound
     106 H5         -19.4322     9.4878    -0.0701 H5            1 Compound
     107 H7          -9.6466    12.6186     1.2954 H7            1 Compound
     108 H7          -8.8617    12.3207    -0.2870 H7            1 Compound
     109 H7          -7.4449    12.2030     2.0093 H7            1 Compound
     110 H7          -7.0022    11.1351     0.7303 H7            1 Compound
     111 H7          -7.1736    14.2390     0.6205 H7            1 Compound
     112 H7          -6.9319    13.3304    -0.8924 H7            1 Compound
     113 H7          -5.2065    12.7852     1.4639 H7            1 Compound
     114 H7          -5.3432    11.4459    -0.8985 H7            1 Compound
     115 H7          -4.3006    12.7352    -1.4893 H7            1 Compound
     116 H7          -4.1040    10.8840     0.8748 H7            1 Compound
     117 H7          -2.6964    11.9107    -0.4849 H7            1 Compound
     118 H7          -3.2860     9.4826    -1.1556 H7            1 Compound
     119 H7          -1.6842    10.1513    -0.7243 H7            1 Compound
     120 H7          -1.8864     9.4198     1.6339 H7            1 Compound
     121 H7          -3.4783     8.6468     1.2548 H7            1 Compound
     122 H7          -1.9913     8.0835     0.4575 H7            1 Compound
     123 H7          -3.6649    14.2366     1.5840 H7            1 Compound
     124 H7          -4.8750    15.3790     1.0226 H7            1 Compound
     125 H7          -3.4997    15.6046    -1.1404 H7            1 Compound
     126 H7          -2.4751    14.2114    -0.6402 H7            1 Compound
     127 H7          -2.6576    16.8011     1.0275 H7            1 Compound
     128 H7          -1.6446    15.3497     1.3529 H7            1 Compound
     129 H7          -1.2315    17.4421    -0.8747 H7            1 Compound
     130 H7          -0.2338    15.9467    -0.7209 H7            1 Compound
     131 H7          -0.5543    18.0034     1.5788 H7            1 Compound
     132 H7           0.5407    16.5781     1.5231 H7            1 Compound
     133 H7           0.7359    19.1656    -0.1607 H7            1 Compound
     134 H7           1.7912    18.6588     1.1958 H7            1 Compound
     135 H7           1.8368    17.7502    -0.3510 H7            1 Compound
     136 H7         -10.3386    12.4619    -1.8408 H7            1 Compound
     137 H7         -11.8902    11.7417    -1.5395 H7            1 Compound
     138 H7         -10.4947    14.0734    -0.0040 H7            1 Compound
     139 H7         -11.9100    13.3268     0.7645 H7            1 Compound
     140 H7         -13.4283    14.3009    -0.9984 H7            1 Compound
     141 H7         -11.9950    14.6979    -1.9471 H7            1 Compound
     142 H7         -12.2841    16.7887    -1.4886 H7            1 Compound
     143 H7         -11.6156    17.5558     1.1187 H7            1 Compound
     144 H7         -10.9840    15.9194     1.1019 H7            1 Compound
     145 H7          -9.7577    16.5962    -1.1317 H7            1 Compound
     146 H7         -10.4474    18.2480    -0.8723 H7            1 Compound
     147 H7          -9.2539    18.3065     1.4004 H7            1 Compound
     148 H7          -8.5083    16.7154     0.9735 H7            1 Compound
     149 H7          -6.9517    18.5737     0.4945 H7            1 Compound
     150 H7          -8.1828    19.4006    -0.5271 H7            1 Compound
     151 H7          -7.4637    17.8295    -1.0688 H7            1 Compound
     152 H7         -14.6398    16.7800    -0.7536 H7            1 Compound
     153 H7         -14.0712    16.9475     0.9307 H7            1 Compound
     154 H7         -13.8983    18.8801    -1.4868 H7            1 Compound
     155 H7         -12.7416    19.1671    -0.1718 H7            1 Compound
     156 H7         -14.5580    19.8867     1.3979 H7            1 Compound
     157 H7         -15.8091    19.3525     0.2272 H7            1 Compound
     158 H7         -14.8637    21.0326    -1.4215 H7            1 Compound
     159 H7         -13.9375    21.8570    -0.1863 H7            1 Compound
     160 H7         -16.5246    22.3458    -1.1958 H7            1 Compound
     161 H7         -16.9992    21.5714     0.3186 H7            1 Compound
     162 H7         -17.0490    24.0988     0.2255 H7            1 Compound
     163 H7         -15.3022    24.1820    -0.0762 H7            1 Compound
     164 H7         -15.9355    23.5959     1.5227 H7            1 Compound
     165 H7           2.1290     4.6950     0.2478 H7            1 Compound
     166 H7           1.3486     4.1948     1.8016 H7            1 Compound
     167 H7           1.5989     6.2970     1.6653 H7            1 Compound
     168 H7          -0.1075     6.2259     1.6191 H7            1 Compound
     169 H7          -0.0558     7.6293    -0.4070 H7            1 Compound
     170 H7           1.4781     7.0154    -0.9710 H7            1 Compound
     171 H7           1.2097     8.6063     1.6456 H7            1 Compound
     172 H7           3.1160     7.8526     0.0211 H7            1 Compound
     173 H7           3.2488     7.6041     1.8442 H7            1 Compound
     174 H7           4.8587     7.0067     0.3222 H7            1 Compound
     175 H7           4.8081     8.6384    -0.5511 H7            1 Compound
     176 H7           5.8660     9.7311     1.4888 H7            1 Compound
     177 H7           6.6544     8.6881     0.3397 H7            1 Compound
     178 H7           6.9149     8.2248     3.1902 H7            1 Compound
     179 H7           6.9690     6.7965     2.0254 H7            1 Compound
     180 H7           8.0106     8.2073     1.8416 H7            1 Compound
     181 H7           1.8507    10.6034     1.3714 H7            1 Compound
     182 H7           0.4791    10.4506     0.2846 H7            1 Compound
     183 H7           1.9561    11.1442    -1.6001 H7            1 Compound
     184 H7           3.4439    10.8039    -0.6359 H7            1 Compound
     185 H7           2.9694    12.5626     0.9913 H7            1 Compound
     186 H7           1.4189    13.0046     0.2022 H7            1 Compound
     187 H7           2.6349    13.9472    -1.7419 H7            1 Compound
     188 H7           4.2159    13.3684    -1.0832 H7            1 Compound
     189 H7           3.9744    14.8480     0.9153 H7            1 Compound
     190 H7           2.3877    15.4410     0.3142 H7            1 Compound
     191 H7           3.5221    16.4717    -1.6747 H7            1 Compound
     192 H7           4.2160    17.0679    -0.1290 H7            1 Compound
     193 H7           5.1179    15.8516    -1.0889 H7            1 Compound
     194 H7           2.3910     2.3933     0.2855 H7            1 Compound
     195 H7           1.6534     1.5640    -1.1322 H7            1 Compound
     196 H7           3.6245     2.3230    -2.0534 H7            1 Compound
     197 H7           3.6168     3.8552    -1.2068 H7            1 Compound
     198 H7           4.6773     1.0338    -0.2145 H7            1 Compound
     199 H7           4.6177     2.4012     0.9225 H7            1 Compound
     200 H7           6.0833     2.4926    -1.7244 H7            1 Compound
     201 H7           6.0847     4.2462     0.8619 H7            1 Compound
     202 H7           5.4668     4.6578    -0.7295 H7            1 Compound
     203 H7           8.3540     4.4667    -1.1321 H7            1 Compound
     204 H7           8.0699     5.0855     0.5302 H7            1 Compound
     205 H7           8.2002     6.7136    -0.6271 H7            1 Compound
     206 H7           6.4162     6.6385    -0.7865 H7            1 Compound
     207 H7           8.5991     7.4963    -2.6497 H7            1 Compound
     208 H7           6.8058     7.6908    -2.8195 H7            1 Compound
     209 H7           7.6484     8.5042    -1.5088 H7            1 Compound
     210 H7           7.7819     2.4811    -0.9238 H7            1 Compound
     211 H7           7.4396     0.7508    -0.3635 H7            1 Compound
     212 H7           9.2964     1.7029    -1.6437 H7            1 Compound
     213 H7           9.6096     2.9839    -0.2599 H7            1 Compound
     214 H7          11.2367     1.7899    -1.2593 H7            1 Compound
     215 H7          10.7013     0.1857    -0.7001 H7            1 Compound
     216 H7          11.8604     0.7142     1.4619 H7            1 Compound
     217 H7          12.0182     2.4593     1.0091 H7            1 Compound
     218 H7          13.3898     1.9442    -0.9797 H7            1 Compound
     219 H7          13.2377     0.1761    -0.7037 H7            1 Compound
     220 H7          14.7236     0.3602     1.2782 H7            1 Compound
     221 H7          14.8249     2.1653     1.0456 H7            1 Compound
     222 H7          15.4588     1.0494    -0.2014 H7            1 Compound
@<TRIPOS>BOND
       1        2        1 1
       2       71        1 1
       3       85        1 1
       4        5        1 1
       5        3        2 1
       6       11        2 1
       7        4        3 1
       8        9        3 1
       9        5        4 1
      10        8        4 1
      11        6        5 1
      12        7        6 1
      13       99        6 1
      14        8        7 1
      15      100        7 1
      16       10        9 1
      17       11       10 1
      18       12       10 1
      19      101       11 1
      20       13       12 1
      21       67       12 1
      22       14       13 1
      23      102       13 1
      24       15       14 1
      25       16       14 1
      26       17       16 1
      27       66       16 1
      28       18       17 1
      29       37       17 1
      30       19       18 1
      31      103       18 1
      32       20       19 1
      33       36       19 1
      34       21       20 1
      35       38       20 1
      36       52       20 1
      37       22       21 1
      38       25       21 1
      39       23       22 1
      40       36       22 1
      41       24       23 1
      42       25       24 1
      43       26       24 1
      44      104       25 1
      45       27       26 1
      46       35       26 1
      47       28       27 1
      48       29       27 1
      49       30       29 1
      50      105       29 1
      51       31       30 1
      52      106       30 1
      53       32       31 1
      54       35       31 1
      55       33       32 1
      56       34       33 1
      57       35       34 1
      58       37       36 1
      59       39       38 1
      60      107       38 1
      61      108       38 1
      62       40       39 1
      63      109       39 1
      64      110       39 1
      65       41       40 1
      66      111       40 1
      67      112       40 1
      68       42       41 1
      69       46       41 1
      70      113       41 1
      71       43       42 1
      72      114       42 1
      73      115       42 1
      74       44       43 1
      75      116       43 1
      76      117       43 1
      77       45       44 1
      78      118       44 1
      79      119       44 1
      80      120       45 1
      81      121       45 1
      82      122       45 1
      83       47       46 1
      84      123       46 1
      85      124       46 1
      86       48       47 1
      87      125       47 1
      88      126       47 1
      89       49       48 1
      90      127       48 1
      91      128       48 1
      92       50       49 1
      93      129       49 1
      94      130       49 1
      95       51       50 1
      96      131       50 1
      97      132       50 1
      98      133       51 1
      99      134       51 1
     100      135       51 1
     101       53       52 1
     102      136       52 1
     103      137       52 1
     104       54       53 1
     105      138       53 1
     106      139       53 1
     107       55       54 1
     108      140       54 1
     109      141       54 1
     110       56       55 1
     111       60       55 1
     112      142       55 1
     113       57       56 1
     114      143       56 1
     115      144       56 1
     116       58       57 1
     117      145       57 1
     118      146       57 1
     119       59       58 1
     120      147       58 1
     121      148       58 1
     122      149       59 1
     123      150       59 1
     124      151       59 1
     125       61       60 1
     126      152       60 1
     127      153       60 1
     128       62       61 1
     129      154       61 1
     130      155       61 1
     131       63       62 1
     132      156       62 1
     133      157       62 1
     134       64       63 1
     135      158       63 1
     136      159       63 1
     137       65       64 1
     138      160       64 1
     139      161       64 1
     140      162       65 1
     141      163       65 1
     142      164       65 1
     143       67       66 1
     144       70       66 1
     145       68       67 1
     146       69       68 1
     147       70       69 1
     148       72       71 1
     149      165       71 1
     150      166       71 1
     151       73       72 1
     152      167       72 1
     153      168       72 1
     154       74       73 1
     155      169       73 1
     156      170       73 1
     157       75       74 1
     158       79       74 1
     159      171       74 1
     160       76       75 1
     161      172       75 1
     162      173       75 1
     163       77       76 1
     164      174       76 1
     165      175       76 1
     166       78       77 1
     167      176       77 1
     168      177       77 1
     169      178       78 1
     170      179       78 1
     171      180       78 1
     172       80       79 1
     173      181       79 1
     174      182       79 1
     175       81       80 1
     176      183       80 1
     177      184       80 1
     178       82       81 1
     179      185       81 1
     180      186       81 1
     181       83       82 1
     182      187       82 1
     183      188       82 1
     184       84       83 1
     185      189       83 1
     186      190       83 1
     187      191       84 1
     188      192       84 1
     189      193       84 1
     190       86       85 1
     191      194       85 1
     192      195       85 1
     193       87       86 1
     194      196       86 1
     195      197       86 1
     196       88       87 1
     197      198       87 1
     198      199       87 1
     199       89       88 1
     200       93       88 1
     201      200       88 1
     202       90       89 1
     203      201       89 1
     204      202       89 1
     205       91       90 1
     206      203       90 1
     207      204       90 1
     208       92       91 1
     209      205       91 1
     210      206       91 1
     211      207       92 1
     212      208       92 1
     213      209       92 1
     214       94       93 1
     215      210       93 1
     216      211       93 1
     217       95       94 1
     218      212       94 1
     219      213       94 1
     220       96       95 1
     221      214       95 1
     222      215       95 1
     223       97       96 1
     224      216       96 1
     225      217       96 1
     226       98       97 1
     227      218       97 1
     228      219       97 1
     229      220       98 1
     230      221       98 1
     231      222       98 1
@<TRIPOS>SUBSTRUCTURE
       1 Compound        1 RESIDUE    0 **** ROOT      0
