@<TRIPOS>MOLECULE
Compound
234 243 1 0 1
SMALL
NO_CHARGES
@<TRIPOS>CRYSIN
   28.6099    21.0919    28.3795    90.0000    90.0000    90.0000  1  1
@<TRIPOS>ATOM
       1 C0           9.5020    10.0241     8.7585 C0            1 Compound
       2 C1           8.7830    10.3294    10.0234 C1            1 Compound
       3 C1           9.5609    10.6497    11.0686 C1            1 Compound
       4 S2           8.6414    10.8523    12.4762 S2            1 Compound
       5 C1           7.1973    10.5953    11.5907 C1            1 Compound
       6 C1           7.4551    10.2876    10.2816 C1            1 Compound
       7 C1          10.9132    10.6334    10.5897 C1            1 Compound
       8 C1          10.9095    10.3093     9.3020 C1            1 Compound
       9 C1          12.2461    10.2258     8.7505 C1            1 Compound
      10 C1          13.1824    10.4851     9.7452 C1            1 Compound
      11 S2          12.4910    10.9023    11.3660 S2            1 Compound
      12 H3           6.7012     9.9991     9.5562 H3            1 Compound
      13 H3          12.4868     9.9426     7.7363 H3            1 Compound
      14 C0          -1.0096     7.2905    14.0734 C0            1 Compound
      15 C1          -2.2197     7.4316    13.0661 C1            1 Compound
      16 C1          -1.8202     8.0879    11.9448 C1            1 Compound
      17 S2          -3.0109     8.4568    10.8771 S2            1 Compound
      18 C1          -4.2142     7.7579    11.8380 C1            1 Compound
      19 C1          -3.6220     7.1873    13.0155 C1            1 Compound
      20 C1          -0.4659     8.3850    11.9997 C1            1 Compound
      21 C1           0.0394     7.9243    13.1580 C1            1 Compound
      22 C1           1.3763     8.2194    13.2798 C1            1 Compound
      23 C1           1.8327     8.9606    12.2082 C1            1 Compound
      24 S2           0.6049     9.2405    11.0589 S2            1 Compound
      25 H3          -4.1830     6.7165    13.8109 H3            1 Compound
      26 H3           1.9927     8.0012    14.1252 H3            1 Compound
      27 C1           4.2463     8.6992    12.6817 C1            1 Compound
      28 F4           4.0379     7.4621    13.1996 F4            1 Compound
      29 C1           5.5543     9.1404    12.5882 C1            1 Compound
      30 C1           5.8394    10.3536    11.9725 C1            1 Compound
      31 C1           4.8093    11.1417    11.4472 C1            1 Compound
      32 N5           5.0054    12.3233    10.8040 N5            1 Compound
      33 S2           3.4648    12.7746    10.4171 S2            1 Compound
      34 N5           2.5423    11.5325    10.9945 N5            1 Compound
      35 C1           3.4747    10.7022    11.5361 C1            1 Compound
      36 C1           3.1883     9.4694    12.1409 C1            1 Compound
      37 H3           6.3532     8.4870    12.9180 H3            1 Compound
      38 C1          -6.0904     8.9814    10.6552 C1            1 Compound
      39 F4          -5.2605    10.0081    10.3469 F4            1 Compound
      40 C1          -7.4160     9.0997    10.2180 C1            1 Compound
      41 C1          -8.3467     8.0993    10.4818 C1            1 Compound
      42 C1          -7.9419     6.9792    11.2024 C1            1 Compound
      43 N5          -8.7699     5.9418    11.4754 N5            1 Compound
      44 S2          -7.7760     4.9106    12.2991 S2            1 Compound
      45 N5          -6.3247     5.7011    12.3470 N5            1 Compound
      46 C1          -6.5982     6.8542    11.6813 C1            1 Compound
      47 C1          -5.6476     7.8499    11.4097 C1            1 Compound
      48 H3          -7.7194     9.9799     9.6609 H3            1 Compound
      49 C0           8.8885    11.0400     7.7095 C0            1 Compound
      50 C0           8.6687    10.6069     6.2479 C0            1 Compound
      51 C0           7.3255    11.1064     5.6492 C0            1 Compound
      52 C0           6.0921    10.3426     6.2671 C0            1 Compound
      53 C0           4.7545    10.5989     5.5332 C0            1 Compound
      54 C0           3.5617     9.9797     6.3161 C0            1 Compound
      55 C0           2.1938    10.2980     5.6793 C0            1 Compound
      56 C0           1.0344     9.6586     6.4526 C0            1 Compound
      57 C0          -0.3076     9.9741     5.7888 C0            1 Compound
      58 C0           4.8133    10.0284     4.0830 C0            1 Compound
      59 C0           4.4250    11.0973     3.0635 C0            1 Compound
      60 C0           4.5932    10.5781     1.6319 C0            1 Compound
      61 C0           4.2933    11.6496     0.5734 C0            1 Compound
      62 C0           5.2744    12.8346     0.6316 C0            1 Compound
      63 C0           4.9963    13.8344    -0.4840 C0            1 Compound
      64 H6           7.8583    11.2326     8.0352 H6            1 Compound
      65 H6           9.3138    12.0628     7.7992 H6            1 Compound
      66 H6           9.5487    10.9259     5.6507 H6            1 Compound
      67 H6           8.5406     9.5265     6.1521 H6            1 Compound
      68 H6           7.2121    12.2070     5.7569 H6            1 Compound
      69 H6           7.3930    10.8918     4.5678 H6            1 Compound
      70 H6           5.9585    10.6489     7.3227 H6            1 Compound
      71 H6           6.2747     9.2452     6.2555 H6            1 Compound
      72 H6           4.6215    11.7045     5.5285 H6            1 Compound
      73 H6           3.5581    10.3764     7.3565 H6            1 Compound
      74 H6           3.6932     8.8742     6.3728 H6            1 Compound
      75 H6           2.0547    11.4015     5.6470 H6            1 Compound
      76 H6           2.1579     9.9062     4.6413 H6            1 Compound
      77 H6           1.1639     8.5532     6.4800 H6            1 Compound
      78 H6           1.0208    10.0390     7.5013 H6            1 Compound
      79 H6          -0.3248     9.5825     4.7523 H6            1 Compound
      80 H6          -0.4787    11.0711     5.7695 H6            1 Compound
      81 H6          -1.1323     9.4970     6.3612 H6            1 Compound
      82 H6           5.8348     9.6899     3.8258 H6            1 Compound
      83 H6           4.2028     9.1051     3.9760 H6            1 Compound
      84 H6           5.1065    11.9555     3.2300 H6            1 Compound
      85 H6           3.3781    11.4320     3.2276 H6            1 Compound
      86 H6           5.6334    10.2118     1.4833 H6            1 Compound
      87 H6           3.8995     9.7221     1.4819 H6            1 Compound
      88 H6           3.2493    12.0119     0.6956 H6            1 Compound
      89 H6           4.3827    11.1665    -0.4239 H6            1 Compound
      90 H6           5.1819    13.3763     1.5942 H6            1 Compound
      91 H6           6.3163    12.4613     0.5271 H6            1 Compound
      92 H6           3.9670    14.2401    -0.3865 H6            1 Compound
      93 H6           5.1093    13.3464    -1.4750 H6            1 Compound
      94 H6           5.7195    14.6743    -0.4142 H6            1 Compound
      95 C0           9.2665     8.4936     8.5086 C0            1 Compound
      96 C0          10.1817     7.8173     7.4704 C0            1 Compound
      97 C0           9.9190     6.3107     7.3350 C0            1 Compound
      98 C0          10.4951     5.4917     8.5220 C0            1 Compound
      99 C0          10.4955     3.9604     8.2610 C0            1 Compound
     100 C0          10.9011     3.2256     9.5688 C0            1 Compound
     101 C0          10.9291     1.6922     9.4587 C0            1 Compound
     102 C0          11.3736     1.0605    10.7857 C0            1 Compound
     103 C0          11.4462    -0.4603    10.6795 C0            1 Compound
     104 C0          11.4685     3.5959     7.0924 C0            1 Compound
     105 C0          10.8501     2.5912     6.1127 C0            1 Compound
     106 C0          11.7835     2.3825     4.9062 C0            1 Compound
     107 C0          11.2045     1.4481     3.8305 C0            1 Compound
     108 C0           9.9491     2.0240     3.1478 C0            1 Compound
     109 C0           9.4731     1.1076     2.0240 C0            1 Compound
     110 H6           9.4562     7.9619     9.4679 H6            1 Compound
     111 H6           8.1991     8.3197     8.2436 H6            1 Compound
     112 H6          10.0502     8.2487     6.4705 H6            1 Compound
     113 H6          11.2494     7.9597     7.7198 H6            1 Compound
     114 H6           8.8368     6.0963     7.1849 H6            1 Compound
     115 H6          10.4171     6.0341     6.3933 H6            1 Compound
     116 H6           9.8835     5.7158     9.4227 H6            1 Compound
     117 H6          11.5424     5.8050     8.7252 H6            1 Compound
     118 H6           9.4471     3.6904     7.9997 H6            1 Compound
     119 H6          10.1877     3.5062    10.3753 H6            1 Compound
     120 H6          11.9142     3.5740     9.8712 H6            1 Compound
     121 H6           9.9187     1.3199     9.1832 H6            1 Compound
     122 H6          11.6562     1.3849     8.6787 H6            1 Compound
     123 H6          12.3824     1.4414    11.0592 H6            1 Compound
     124 H6          10.6596     1.3346    11.5924 H6            1 Compound
     125 H6          12.1752    -0.7577     9.8952 H6            1 Compound
     126 H6          10.4486    -0.8786    10.4293 H6            1 Compound
     127 H6          11.7795    -0.8858    11.6498 H6            1 Compound
     128 H6          11.7138     4.4784     6.4823 H6            1 Compound
     129 H6          12.4604     3.2736     7.4771 H6            1 Compound
     130 H6           9.8920     3.0202     5.7575 H6            1 Compound
     131 H6          10.6430     1.6191     6.6061 H6            1 Compound
     132 H6          12.0128     3.3616     4.4307 H6            1 Compound
     133 H6          12.7378     1.9457     5.2739 H6            1 Compound
     134 H6          10.9805     0.4541     4.2755 H6            1 Compound
     135 H6          11.9895     1.3152     3.0539 H6            1 Compound
     136 H6           9.1228     2.1290     3.8786 H6            1 Compound
     137 H6          10.1824     3.0184     2.7172 H6            1 Compound
     138 H6           9.2141     0.1041     2.4249 H6            1 Compound
     139 H6          10.2640     0.9975     1.2526 H6            1 Compound
     140 H6           8.5703     1.5445     1.5471 H6            1 Compound
     141 C0          -1.2699     8.2074    15.3326 C0            1 Compound
     142 C0          -0.2604     9.4014    15.5405 C0            1 Compound
     143 C0          -0.6086    10.4442    16.6359 C0            1 Compound
     144 C0          -2.0782    10.4848    17.0914 C0            1 Compound
     145 C0          -3.2635    11.0038    16.1828 C0            1 Compound
     146 C0          -4.4752    10.1578    16.6880 C0            1 Compound
     147 C0          -5.8385    10.3081    16.0220 C0            1 Compound
     148 C0          -6.7782     9.2192    16.5794 C0            1 Compound
     149 C0          -8.1400     9.2345    15.9034 C0            1 Compound
     150 C0          -3.0860    10.8430    14.6420 C0            1 Compound
     151 C0          -3.2737    12.0919    13.7651 C0            1 Compound
     152 C0          -3.0171    11.6524    12.3061 C0            1 Compound
     153 C0          -2.9679    12.7488    11.2404 C0            1 Compound
     154 C0          -1.6952    13.6039    11.3322 C0            1 Compound
     155 C0          -1.5713    14.5190    10.1155 C0            1 Compound
     156 H6          -1.4265     7.6316    16.2598 H6            1 Compound
     157 H6          -2.2790     8.5938    15.2110 H6            1 Compound
     158 H6          -0.1602     9.9687    14.5956 H6            1 Compound
     159 H6           0.7650     9.0306    15.7409 H6            1 Compound
     160 H6          -0.0500    10.1177    17.5407 H6            1 Compound
     161 H6          -0.2067    11.4475    16.3700 H6            1 Compound
     162 H6          -2.1326    11.0690    18.0366 H6            1 Compound
     163 H6          -2.2502     9.4389    17.4229 H6            1 Compound
     164 H6          -3.3873    12.0890    16.3817 H6            1 Compound
     165 H6          -4.5984    10.3112    17.7843 H6            1 Compound
     166 H6          -4.1978     9.0865    16.5318 H6            1 Compound
     167 H6          -6.2444    11.3240    16.2071 H6            1 Compound
     168 H6          -5.7525    10.1496    14.9241 H6            1 Compound
     169 H6          -6.3322     8.2122    16.4062 H6            1 Compound
     170 H6          -6.9054     9.3564    17.6759 H6            1 Compound
     171 H6          -8.0217     9.0501    14.8144 H6            1 Compound
     172 H6          -8.6344    10.2124    16.0699 H6            1 Compound
     173 H6          -8.7680     8.4270    16.3344 H6            1 Compound
     174 H6          -2.0547    10.6344    14.4326 H6            1 Compound
     175 H6          -3.6685     9.9849    14.2457 H6            1 Compound
     176 H6          -2.5320    12.8597    14.0791 H6            1 Compound
     177 H6          -4.2970    12.5098    13.8647 H6            1 Compound
     178 H6          -2.0584    11.0899    12.2302 H6            1 Compound
     179 H6          -3.8374    10.9576    12.0475 H6            1 Compound
     180 H6          -3.8838    13.3760    11.2736 H6            1 Compound
     181 H6          -2.9403    12.2222    10.2599 H6            1 Compound
     182 H6          -1.7032    14.2102    12.2618 H6            1 Compound
     183 H6          -0.7998    12.9422    11.3448 H6            1 Compound
     184 H6          -2.4405    15.2061    10.0536 H6            1 Compound
     185 H6          -1.5221    13.9109     9.1850 H6            1 Compound
     186 H6          -0.6385    15.1169    10.1872 H6            1 Compound
     187 C0          -0.5462     5.8564    14.5102 C0            1 Compound
     188 C0           0.5316     5.8901    15.6565 C0            1 Compound
     189 C0           1.1838     4.5537    15.9887 C0            1 Compound
     190 C0           2.0550     4.6619    17.2774 C0            1 Compound
     191 C0           2.8001     3.3372    17.5734 C0            1 Compound
     192 C0           3.3318     3.2094    19.0235 C0            1 Compound
     193 C0           3.7245     1.7346    19.2882 C0            1 Compound
     194 C0           4.2041     1.4588    20.7117 C0            1 Compound
     195 C0           4.5060    -0.0342    20.8737 C0            1 Compound
     196 C0           3.9489     3.1167    16.5438 C0            1 Compound
     197 C0           3.5948     1.9885    15.5842 C0            1 Compound
     198 C0           4.6686     1.8123    14.5071 C0            1 Compound
     199 C0           4.2732     0.7508    13.4688 C0            1 Compound
     200 C0           3.0335     1.1665    12.6594 C0            1 Compound
     201 C0           2.6903     0.1338    11.5956 C0            1 Compound
     202 H6          -1.4164     5.2891    14.9019 H6            1 Compound
     203 H6          -0.1586     5.3182    13.6172 H6            1 Compound
     204 H6           1.3628     6.5597    15.4185 H6            1 Compound
     205 H6           0.0739     6.2566    16.5920 H6            1 Compound
     206 H6           0.3988     3.7877    16.1623 H6            1 Compound
     207 H6           1.7935     4.2667    15.1093 H6            1 Compound
     208 H6           1.3650     4.8900    18.1191 H6            1 Compound
     209 H6           2.7887     5.4979    17.2128 H6            1 Compound
     210 H6           2.0244     2.5418    17.4974 H6            1 Compound
     211 H6           2.5181     3.4699    19.7349 H6            1 Compound
     212 H6           4.1856     3.9000    19.1991 H6            1 Compound
     213 H6           2.8305     1.0978    19.0996 H6            1 Compound
     214 H6           4.5258     1.4099    18.5935 H6            1 Compound
     215 H6           5.1248     2.0448    20.9189 H6            1 Compound
     216 H6           3.4160     1.7477    21.4396 H6            1 Compound
     217 H6           5.2947    -0.3515    20.1569 H6            1 Compound
     218 H6           3.5904    -0.6359    20.6809 H6            1 Compound
     219 H6           4.8565    -0.2457    21.9044 H6            1 Compound
     220 H6           4.1486     4.0539    15.9775 H6            1 Compound
     221 H6           4.9167     2.8786    17.0345 H6            1 Compound
     222 H6           2.6286     2.2426    15.1236 H6            1 Compound
     223 H6           3.4746     1.0393    16.1517 H6            1 Compound
     224 H6           4.8455     2.7785    13.9840 H6            1 Compound
     225 H6           5.6179     1.5066    14.9991 H6            1 Compound
     226 H6           4.0928    -0.2207    13.9827 H6            1 Compound
     227 H6           5.1281     0.6268    12.7710 H6            1 Compound
     228 H6           2.1407     1.2672    13.3093 H6            1 Compound
     229 H6           3.2240     2.1443    12.1648 H6            1 Compound
     230 H6           2.4585    -0.8400    12.0778 H6            1 Compound
     231 H6           3.5346     0.0084    10.8852 H6            1 Compound
     232 H6           1.7931     0.4749    11.0358 H6            1 Compound
     233 H7          14.2471    10.4058     9.5796 H7            1 Compound
     234 H3          -9.3628     8.1985    10.1217 H3            1 Compound
@<TRIPOS>BOND
       1        2        1 1
       2        8        1 1
       3       49        1 1
       4       95        1 1
       5        3        2 1
       6        6        2 1
       7        4        3 1
       8        7        3 1
       9        5        4 1
      10        6        5 1
      11       30        5 1
      12       12        6 1
      13        8        7 1
      14       11        7 1
      15        9        8 1
      16       10        9 1
      17       13        9 1
      18       11       10 1
      19      233       10 1
      20       15       14 1
      21       21       14 1
      22      141       14 1
      23      187       14 1
      24       16       15 1
      25       19       15 1
      26       17       16 1
      27       20       16 1
      28       18       17 1
      29       19       18 1
      30       47       18 1
      31       25       19 1
      32       21       20 1
      33       24       20 1
      34       22       21 1
      35       23       22 1
      36       26       22 1
      37       24       23 1
      38       36       23 1
      39       28       27 1
      40       29       27 1
      41       36       27 1
      42       30       29 1
      43       37       29 1
      44       31       30 1
      45       32       31 1
      46       35       31 1
      47       33       32 1
      48       34       33 1
      49       35       34 1
      50       36       35 1
      51       39       38 1
      52       40       38 1
      53       47       38 1
      54       41       40 1
      55       48       40 1
      56       42       41 1
      57      234       41 1
      58       43       42 1
      59       46       42 1
      60       44       43 1
      61       45       44 1
      62       46       45 1
      63       47       46 1
      64       50       49 1
      65       64       49 1
      66       65       49 1
      67       51       50 1
      68       66       50 1
      69       67       50 1
      70       52       51 1
      71       68       51 1
      72       69       51 1
      73       53       52 1
      74       70       52 1
      75       71       52 1
      76       54       53 1
      77       58       53 1
      78       72       53 1
      79       55       54 1
      80       73       54 1
      81       74       54 1
      82       56       55 1
      83       75       55 1
      84       76       55 1
      85       57       56 1
      86       77       56 1
      87       78       56 1
      88       79       57 1
      89       80       57 1
      90       81       57 1
      91       59       58 1
      92       82       58 1
      93       83       58 1
      94       60       59 1
      95       84       59 1
      96       85       59 1
      97       61       60 1
      98       86       60 1
      99       87       60 1
     100       62       61 1
     101       88       61 1
     102       89       61 1
     103       63       62 1
     104       90       62 1
     105       91       62 1
     106       92       63 1
     107       93       63 1
     108       94       63 1
     109       96       95 1
     110      110       95 1
     111      111       95 1
     112       97       96 1
     113      112       96 1
     114      113       96 1
     115       98       97 1
     116      114       97 1
     117      115       97 1
     118       99       98 1
     119      116       98 1
     120      117       98 1
     121      100       99 1
     122      104       99 1
     123      118       99 1
     124      101      100 1
     125      119      100 1
     126      120      100 1
     127      102      101 1
     128      121      101 1
     129      122      101 1
     130      103      102 1
     131      123      102 1
     132      124      102 1
     133      125      103 1
     134      126      103 1
     135      127      103 1
     136      105      104 1
     137      128      104 1
     138      129      104 1
     139      106      105 1
     140      130      105 1
     141      131      105 1
     142      107      106 1
     143      132      106 1
     144      133      106 1
     145      108      107 1
     146      134      107 1
     147      135      107 1
     148      109      108 1
     149      136      108 1
     150      137      108 1
     151      138      109 1
     152      139      109 1
     153      140      109 1
     154      142      141 1
     155      156      141 1
     156      157      141 1
     157      143      142 1
     158      158      142 1
     159      159      142 1
     160      144      143 1
     161      160      143 1
     162      161      143 1
     163      145      144 1
     164      162      144 1
     165      163      144 1
     166      146      145 1
     167      150      145 1
     168      164      145 1
     169      147      146 1
     170      165      146 1
     171      166      146 1
     172      148      147 1
     173      167      147 1
     174      168      147 1
     175      149      148 1
     176      169      148 1
     177      170      148 1
     178      171      149 1
     179      172      149 1
     180      173      149 1
     181      151      150 1
     182      174      150 1
     183      175      150 1
     184      152      151 1
     185      176      151 1
     186      177      151 1
     187      153      152 1
     188      178      152 1
     189      179      152 1
     190      154      153 1
     191      180      153 1
     192      181      153 1
     193      155      154 1
     194      182      154 1
     195      183      154 1
     196      184      155 1
     197      185      155 1
     198      186      155 1
     199      188      187 1
     200      202      187 1
     201      203      187 1
     202      189      188 1
     203      204      188 1
     204      205      188 1
     205      190      189 1
     206      206      189 1
     207      207      189 1
     208      191      190 1
     209      208      190 1
     210      209      190 1
     211      192      191 1
     212      196      191 1
     213      210      191 1
     214      193      192 1
     215      211      192 1
     216      212      192 1
     217      194      193 1
     218      213      193 1
     219      214      193 1
     220      195      194 1
     221      215      194 1
     222      216      194 1
     223      217      195 1
     224      218      195 1
     225      219      195 1
     226      197      196 1
     227      220      196 1
     228      221      196 1
     229      198      197 1
     230      222      197 1
     231      223      197 1
     232      199      198 1
     233      224      198 1
     234      225      198 1
     235      200      199 1
     236      226      199 1
     237      227      199 1
     238      201      200 1
     239      228      200 1
     240      229      200 1
     241      230      201 1
     242      231      201 1
     243      232      201 1
@<TRIPOS>SUBSTRUCTURE
       1 Compound        1 RESIDUE    0 **** ROOT      0
