@<TRIPOS>MOLECULE
Compound
198 207 1 0 1
SMALL
NO_CHARGES
@<TRIPOS>CRYSIN
   30.0362    18.4995    15.4066    90.0000    90.0000    90.0000  1  1
@<TRIPOS>ATOM
       1 C0           9.5800     9.6368     8.7206 C0            1 Compound
       2 C1           8.4420     9.8646     9.7134 C1            1 Compound
       3 C1           8.8378    10.4956    10.8659 C1            1 Compound
       4 S2           7.5295    10.8337    11.8837 S2            1 Compound
       5 C1           6.4128    10.0562    10.8616 C1            1 Compound
       6 C1           7.0873     9.5860     9.7313 C1            1 Compound
       7 C1          10.2389    10.9286    10.8242 C1            1 Compound
       8 C1          10.6876    10.1796     9.6246 C1            1 Compound
       9 C1          11.9963     9.9799     9.5604 C1            1 Compound
      10 C1          12.6151    10.3568    10.7373 C1            1 Compound
      11 S2          11.4462    10.5387    12.1076 S2            1 Compound
      12 H3           6.5711     9.1229     8.9475 H3            1 Compound
      13 H3          12.5060     9.4587     8.7613 H3            1 Compound
      14 C0          -2.4935     8.8525     8.4228 C0            1 Compound
      15 C1          -3.6748     9.1145     9.3683 C1            1 Compound
      16 C1          -3.2860     9.7018    10.5435 C1            1 Compound
      17 S2          -4.5758    10.0099    11.5839 S2            1 Compound
      18 C1          -5.6882     9.2810    10.5152 C1            1 Compound
      19 C1          -5.0345     8.8644     9.3599 C1            1 Compound
      20 C1          -1.8696     9.8533    10.5335 C1            1 Compound
      21 C1          -1.3973     9.3433     9.3715 C1            1 Compound
      22 C1          -0.0102     9.3271     9.3039 C1            1 Compound
      23 C1           0.5897     9.8522    10.4696 C1            1 Compound
      24 S2          -0.6319    10.3728    11.5496 S2            1 Compound
      25 H3          -5.5690     8.4123     8.5799 H3            1 Compound
      26 H3           0.5171     8.9382     8.4465 H3            1 Compound
      27 C1           2.8865     8.9370    10.0892 C1            1 Compound
      28 F4           2.3715     7.9179     9.3572 F4            1 Compound
      29 C1           4.2676     8.9807    10.2189 C1            1 Compound
      30 C1           4.9257     9.9857    10.9454 C1            1 Compound
      31 C1           4.1272    10.9186    11.6272 C1            1 Compound
      32 N5           4.6252    11.9431    12.3652 N5            1 Compound
      33 S2           3.2570    12.7298    12.8513 S2            1 Compound
      34 N5           2.0296    11.8611    12.1654 N5            1 Compound
      35 C1           2.6945    10.8740    11.5119 C1            1 Compound
      36 C1           2.0628     9.9005    10.7047 C1            1 Compound
      37 H3           4.8243     8.2020     9.7250 H3            1 Compound
      38 C1          -7.9421    10.0894    11.3013 C1            1 Compound
      39 F4          -7.3834    11.2429    11.7465 F4            1 Compound
      40 C1          -9.3368     9.9271    11.3976 C1            1 Compound
      41 C1          -9.9651     8.7659    10.9272 C1            1 Compound
      42 C1          -9.1904     7.7611    10.3610 C1            1 Compound
      43 N5          -9.7040     6.5894     9.9014 N5            1 Compound
      44 S2          -8.3517     5.7972     9.3767 S2            1 Compound
      45 N5          -7.1300     6.8610     9.6936 N5            1 Compound
      46 C1          -7.7837     7.9201    10.2413 C1            1 Compound
      47 C1          -7.1466     9.0952    10.6989 C1            1 Compound
      48 H3          -9.9383    10.7129    11.8319 H3            1 Compound
      49 C0           9.6266    10.3625     7.3251 C0            1 Compound
      50 C0           9.3028    11.8812     7.0225 C0            1 Compound
      51 C0           7.8220    12.2911     7.3202 C0            1 Compound
      52 C0           7.6134    12.9273     8.7017 C0            1 Compound
      53 C0           6.1320    13.1534     9.0520 C0            1 Compound
      54 C0           5.4390    14.1764     8.1555 C0            1 Compound
      55 C0           9.6256    12.0596     5.4936 C0            1 Compound
      56 C0           9.2883    13.4100     4.8175 C0            1 Compound
      57 C0           9.8441    14.6591     5.5195 C0            1 Compound
      58 C0          11.3755    14.7426     5.5885 C0            1 Compound
      59 C0          12.0266    14.8110     4.1989 C0            1 Compound
      60 C0          13.5323    15.0217     4.3105 C0            1 Compound
      61 H6           9.0022     9.7997     6.6287 H6            1 Compound
      62 H6          10.6590    10.1739     6.9530 H6            1 Compound
      63 H6           9.9870    12.5630     7.5725 H6            1 Compound
      64 H6           7.1408    11.4442     7.1264 H6            1 Compound
      65 H6           7.4994    13.1014     6.6545 H6            1 Compound
      66 H6           8.0255    12.2924     9.4672 H6            1 Compound
      67 H6           8.1758    13.8840     8.7690 H6            1 Compound
      68 H6           6.0769    13.5240    10.0986 H6            1 Compound
      69 H6           5.5837    12.1878     9.0006 H6            1 Compound
      70 H6           5.9633    15.1534     8.2166 H6            1 Compound
      71 H6           5.4102    13.8343     7.1012 H6            1 Compound
      72 H6           4.3918    14.3119     8.4993 H6            1 Compound
      73 H6          10.7122    11.8699     5.3510 H6            1 Compound
      74 H6           9.0777    11.2898     4.9054 H6            1 Compound
      75 H6           8.1895    13.5244     4.7354 H6            1 Compound
      76 H6           9.6382    13.3744     3.7648 H6            1 Compound
      77 H6           9.4701    15.5544     4.9759 H6            1 Compound
      78 H6           9.4341    14.7077     6.5502 H6            1 Compound
      79 H6          11.6261    15.6749     6.1406 H6            1 Compound
      80 H6          11.7832    13.8833     6.1623 H6            1 Compound
      81 H6          11.5932    15.6591     3.6246 H6            1 Compound
      82 H6          11.8443    13.8688     3.6411 H6            1 Compound
      83 H6          13.9768    15.0692     3.2942 H6            1 Compound
      84 H6          13.9991    14.1825     4.8682 H6            1 Compound
      85 H6          13.7473    15.9767     4.8363 H6            1 Compound
      86 C0           9.7765     8.0802     8.5099 C0            1 Compound
      87 C0           9.0298     7.2028     7.4057 C0            1 Compound
      88 C0           7.4620     7.1781     7.4023 C0            1 Compound
      89 C0           6.8086     8.3153     6.5718 C0            1 Compound
      90 C0           5.2692     8.2956     6.5350 C0            1 Compound
      91 C0           4.6741     7.0857     5.8258 C0            1 Compound
      92 C0           9.6051     5.7517     7.5629 C0            1 Compound
      93 C0           9.0776     4.6522     6.6058 C0            1 Compound
      94 C0           9.1353     4.9970     5.1047 C0            1 Compound
      95 C0          10.5422     5.2437     4.5393 C0            1 Compound
      96 C0          11.4397     4.0010     4.6236 C0            1 Compound
      97 C0          12.7830     4.2500     3.9456 C0            1 Compound
      98 H6           9.6512     7.5913     9.5029 H6            1 Compound
      99 H6          10.8458     7.9514     8.2385 H6            1 Compound
     100 H6           9.3495     7.5412     6.3972 H6            1 Compound
     101 H6           7.0767     7.0625     8.4353 H6            1 Compound
     102 H6           7.1166     6.2943     6.8525 H6            1 Compound
     103 H6           7.0688     9.2881     6.9783 H6            1 Compound
     104 H6           7.1940     8.2876     5.5296 H6            1 Compound
     105 H6           4.9280     9.2069     5.9967 H6            1 Compound
     106 H6           4.8603     8.3466     7.5566 H6            1 Compound
     107 H6           5.0368     7.0445     4.7778 H6            1 Compound
     108 H6           4.9297     6.1447     6.3523 H6            1 Compound
     109 H6           3.5673     7.1834     5.8174 H6            1 Compound
     110 H6          10.7078     5.8019     7.4286 H6            1 Compound
     111 H6           9.4148     5.3905     8.5974 H6            1 Compound
     112 H6           8.0267     4.4077     6.8598 H6            1 Compound
     113 H6           9.6367     3.7139     6.8024 H6            1 Compound
     114 H6           8.6726     4.1597     4.5376 H6            1 Compound
     115 H6           8.5145     5.8973     4.9135 H6            1 Compound
     116 H6          10.4213     5.5161     3.4675 H6            1 Compound
     117 H6          11.0215     6.1012     5.0576 H6            1 Compound
     118 H6          10.9414     3.1463     4.1155 H6            1 Compound
     119 H6          11.6241     3.7311     5.6842 H6            1 Compound
     120 H6          13.4103     3.3367     4.0176 H6            1 Compound
     121 H6          13.3147     5.0908     4.4391 H6            1 Compound
     122 H6          12.6321     4.4918     2.8716 H6            1 Compound
     123 C0          -2.4084     9.6176     7.0462 C0            1 Compound
     124 C0          -2.7406    11.1391     6.7597 C0            1 Compound
     125 C0          -4.2153    11.5403     7.0931 C0            1 Compound
     126 C0          -4.3790    12.2312     8.4553 C0            1 Compound
     127 C0          -5.8521    12.4641     8.8386 C0            1 Compound
     128 C0          -6.5836    13.4352     7.9134 C0            1 Compound
     129 C0          -2.4463    11.3297     5.2243 C0            1 Compound
     130 C0          -2.8270    12.6689     4.5458 C0            1 Compound
     131 C0          -2.2924    13.9382     5.2259 C0            1 Compound
     132 C0          -0.7634    14.0646     5.2625 C0            1 Compound
     133 C0          -0.1416    14.1326     3.8593 C0            1 Compound
     134 C0           1.3605    14.3810     3.9393 C0            1 Compound
     135 H6          -3.0239     9.0654     6.3329 H6            1 Compound
     136 H6          -1.3711     9.4395     6.6828 H6            1 Compound
     137 H6          -2.0506    11.8221     7.3012 H6            1 Compound
     138 H6          -4.8938    10.6809     6.9609 H6            1 Compound
     139 H6          -4.5748    12.3156     6.4063 H6            1 Compound
     140 H6          -3.9284    11.6324     9.2369 H6            1 Compound
     141 H6          -3.8264    13.1959     8.4600 H6            1 Compound
     142 H6          -5.8791    12.8853     9.8664 H6            1 Compound
     143 H6          -6.3933    11.4939     8.8488 H6            1 Compound
     144 H6          -6.0691    14.4191     7.9081 H6            1 Compound
     145 H6          -6.6437    13.0409     6.8787 H6            1 Compound
     146 H6          -7.6214    13.5776     8.2817 H6            1 Compound
     147 H6          -1.3586    11.1611     5.0636 H6            1 Compound
     148 H6          -2.9882    10.5514     4.6422 H6            1 Compound
     149 H6          -3.9292    12.7569     4.4798 H6            1 Compound
     150 H6          -2.4955    12.6352     3.4867 H6            1 Compound
     151 H6          -2.7010    14.8184     4.6812 H6            1 Compound
     152 H6          -2.6835    13.9858     6.2637 H6            1 Compound
     153 H6          -0.5275    15.0105     5.7979 H6            1 Compound
     154 H6          -0.3229    13.2232     5.8379 H6            1 Compound
     155 H6          -0.6067    14.9624     3.2829 H6            1 Compound
     156 H6          -0.3106    13.1794     3.3162 H6            1 Compound
     157 H6           1.7845    14.4251     2.9141 H6            1 Compound
     158 H6           1.8575    13.5610     4.4992 H6            1 Compound
     159 H6           1.5618    15.3480     4.4482 H6            1 Compound
     160 C0          -2.3023     7.3069     8.1773 C0            1 Compound
     161 C0          -3.0572     6.4625     7.0534 C0            1 Compound
     162 C0          -4.6248     6.4591     7.0601 C0            1 Compound
     163 C0          -5.2653     7.5995     6.2241 C0            1 Compound
     164 C0          -6.8069     7.6208     6.2122 C0            1 Compound
     165 C0          -7.4420     6.4086     5.5428 C0            1 Compound
     166 C0          -2.5000     5.0033     7.1794 C0            1 Compound
     167 C0          -3.0516     3.9295     6.2068 C0            1 Compound
     168 C0          -3.0144     4.3054     4.7123 C0            1 Compound
     169 C0          -1.6154     4.5653     4.1349 C0            1 Compound
     170 C0          -0.7126     3.3255     4.1930 C0            1 Compound
     171 C0           0.6261     3.5933     3.5137 C0            1 Compound
     172 H6          -2.4461     6.8021     9.1588 H6            1 Compound
     173 H6          -1.2265     7.1830     7.9178 H6            1 Compound
     174 H6          -2.7366     6.8157     6.0503 H6            1 Compound
     175 H6          -4.9972     6.3574     8.0972 H6            1 Compound
     176 H6          -4.9933     5.5774     6.5228 H6            1 Compound
     177 H6          -4.9721     8.5692     6.6122 H6            1 Compound
     178 H6          -4.8968     7.5461     5.1763 H6            1 Compound
     179 H6          -7.1300     8.5256     5.6519 H6            1 Compound
     180 H6          -7.2050     7.7133     7.2400 H6            1 Compound
     181 H6          -7.0923     6.3272     4.4925 H6            1 Compound
     182 H6          -7.2054     5.4767     6.0939 H6            1 Compound
     183 H6          -8.5457     6.5358     5.5427 H6            1 Compound
     184 H6          -1.3981     5.0446     7.0355 H6            1 Compound
     185 H6          -2.6855     4.6245     8.2087 H6            1 Compound
     186 H6          -4.1006     3.6872     6.4706 H6            1 Compound
     187 H6          -2.4980     2.9828     6.3756 H6            1 Compound
     188 H6          -3.4849     3.4797     4.1345 H6            1 Compound
     189 H6          -3.6374     5.2095     4.5474 H6            1 Compound
     190 H6          -1.7480     4.8544     3.0688 H6            1 Compound
     191 H6          -1.1339     5.4161     4.6620 H6            1 Compound
     192 H6          -1.2102     2.4772     3.6739 H6            1 Compound
     193 H6          -0.5207     3.0394     5.2479 H6            1 Compound
     194 H6           1.2585     2.6824     3.5682 H6            1 Compound
     195 H6           1.1550     4.4286     4.0197 H6            1 Compound
     196 H6           0.4691     3.8528     2.4447 H6            1 Compound
     197 H7          13.6747    10.2124    10.9022 H7            1 Compound
     198 H3         -11.0372     8.6505    11.0013 H3            1 Compound
@<TRIPOS>BOND
       1        2        1 1
       2        8        1 1
       3       49        1 1
       4       86        1 1
       5        3        2 1
       6        6        2 1
       7        4        3 1
       8        7        3 1
       9        5        4 1
      10        6        5 1
      11       30        5 1
      12       12        6 1
      13        8        7 1
      14       11        7 1
      15        9        8 1
      16       10        9 1
      17       13        9 1
      18       11       10 1
      19      197       10 1
      20       15       14 1
      21       21       14 1
      22      123       14 1
      23      160       14 1
      24       16       15 1
      25       19       15 1
      26       17       16 1
      27       20       16 1
      28       18       17 1
      29       19       18 1
      30       47       18 1
      31       25       19 1
      32       21       20 1
      33       24       20 1
      34       22       21 1
      35       23       22 1
      36       26       22 1
      37       24       23 1
      38       36       23 1
      39       28       27 1
      40       29       27 1
      41       36       27 1
      42       30       29 1
      43       37       29 1
      44       31       30 1
      45       32       31 1
      46       35       31 1
      47       33       32 1
      48       34       33 1
      49       35       34 1
      50       36       35 1
      51       39       38 1
      52       40       38 1
      53       47       38 1
      54       41       40 1
      55       48       40 1
      56       42       41 1
      57      198       41 1
      58       43       42 1
      59       46       42 1
      60       44       43 1
      61       45       44 1
      62       46       45 1
      63       47       46 1
      64       50       49 1
      65       61       49 1
      66       62       49 1
      67       51       50 1
      68       55       50 1
      69       63       50 1
      70       52       51 1
      71       64       51 1
      72       65       51 1
      73       53       52 1
      74       66       52 1
      75       67       52 1
      76       54       53 1
      77       68       53 1
      78       69       53 1
      79       70       54 1
      80       71       54 1
      81       72       54 1
      82       56       55 1
      83       73       55 1
      84       74       55 1
      85       57       56 1
      86       75       56 1
      87       76       56 1
      88       58       57 1
      89       77       57 1
      90       78       57 1
      91       59       58 1
      92       79       58 1
      93       80       58 1
      94       60       59 1
      95       81       59 1
      96       82       59 1
      97       83       60 1
      98       84       60 1
      99       85       60 1
     100       87       86 1
     101       98       86 1
     102       99       86 1
     103       88       87 1
     104       92       87 1
     105      100       87 1
     106       89       88 1
     107      101       88 1
     108      102       88 1
     109       90       89 1
     110      103       89 1
     111      104       89 1
     112       91       90 1
     113      105       90 1
     114      106       90 1
     115      107       91 1
     116      108       91 1
     117      109       91 1
     118       93       92 1
     119      110       92 1
     120      111       92 1
     121       94       93 1
     122      112       93 1
     123      113       93 1
     124       95       94 1
     125      114       94 1
     126      115       94 1
     127       96       95 1
     128      116       95 1
     129      117       95 1
     130       97       96 1
     131      118       96 1
     132      119       96 1
     133      120       97 1
     134      121       97 1
     135      122       97 1
     136      124      123 1
     137      135      123 1
     138      136      123 1
     139      125      124 1
     140      129      124 1
     141      137      124 1
     142      126      125 1
     143      138      125 1
     144      139      125 1
     145      127      126 1
     146      140      126 1
     147      141      126 1
     148      128      127 1
     149      142      127 1
     150      143      127 1
     151      144      128 1
     152      145      128 1
     153      146      128 1
     154      130      129 1
     155      147      129 1
     156      148      129 1
     157      131      130 1
     158      149      130 1
     159      150      130 1
     160      132      131 1
     161      151      131 1
     162      152      131 1
     163      133      132 1
     164      153      132 1
     165      154      132 1
     166      134      133 1
     167      155      133 1
     168      156      133 1
     169      157      134 1
     170      158      134 1
     171      159      134 1
     172      161      160 1
     173      172      160 1
     174      173      160 1
     175      162      161 1
     176      166      161 1
     177      174      161 1
     178      163      162 1
     179      175      162 1
     180      176      162 1
     181      164      163 1
     182      177      163 1
     183      178      163 1
     184      165      164 1
     185      179      164 1
     186      180      164 1
     187      181      165 1
     188      182      165 1
     189      183      165 1
     190      167      166 1
     191      184      166 1
     192      185      166 1
     193      168      167 1
     194      186      167 1
     195      187      167 1
     196      169      168 1
     197      188      168 1
     198      189      168 1
     199      170      169 1
     200      190      169 1
     201      191      169 1
     202      171      170 1
     203      192      170 1
     204      193      170 1
     205      194      171 1
     206      195      171 1
     207      196      171 1
@<TRIPOS>SUBSTRUCTURE
       1 Compound        1 RESIDUE    0 **** ROOT      0
