@<TRIPOS>MOLECULE
Compound
148 152 1 0 1
SMALL
NO_CHARGES
@<TRIPOS>CRYSIN
   26.7253    24.1045    21.8557    90.0000    90.0000    90.0000  1  1
@<TRIPOS>ATOM
       1 C0          15.6435    15.6406    14.5747 C0            1 Compound
       2 C0          14.1219    15.1577    14.6871 C0            1 Compound
       3 C0          14.0876    13.8821    15.1468 C0            1 Compound
       4 S1          12.6276    13.1318    14.9865 S1            1 Compound
       5 C0          11.8818    14.3635    14.1160 C0            1 Compound
       6 C0          12.8364    15.4691    14.0572 C0            1 Compound
       7 C0          15.3060    13.2883    14.7646 C0            1 Compound
       8 C0          16.1345    14.2217    14.3235 C0            1 Compound
       9 C0          17.0496    13.6805    13.3384 C0            1 Compound
      10 C0          16.7748    12.3389    13.0990 C0            1 Compound
      11 S1          15.4737    11.6499    14.1093 S1            1 Compound
      12 H2          12.6647    16.3396    13.4417 H2            1 Compound
      13 H2          17.6861    14.2771    12.7071 H2            1 Compound
      14 N3           8.8728    12.2804    12.9534 N3            1 Compound
      15 C0           9.9906    12.7136    13.6096 C0            1 Compound
      16 C0          10.5586    14.0324    13.4051 C0            1 Compound
      17 C0           9.8600    14.8131    12.4552 C0            1 Compound
      18 N3          10.2151    16.0748    12.1065 N3            1 Compound
      19 S1           9.0551    16.4775    10.9912 S1            1 Compound
      20 N3           8.0921    15.1432    10.9033 N3            1 Compound
      21 C0           8.6845    14.3151    11.7950 C0            1 Compound
      22 C0           8.2094    13.0403    12.0491 C0            1 Compound
      23 H4          10.4307    12.0012    14.2850 H4            1 Compound
      24 C5          28.1146    19.2637    25.6821 C5            1 Compound
      25 C5          26.8990    18.7803    24.8588 C5            1 Compound
      26 C5          26.9700    19.2276    23.3744 C5            1 Compound
      27 C5          25.8904    18.6147    22.4000 C5            1 Compound
      28 C5          24.4190    19.0924    22.5958 C5            1 Compound
      29 C5          23.2534    18.4588    21.6962 C5            1 Compound
      30 C5          23.1513    18.8499    20.1670 C5            1 Compound
      31 C5          21.7600    18.6626    19.3594 C5            1 Compound
      32 C5          21.1961    17.2613    18.8361 C5            1 Compound
      33 C5          19.7051    17.1734    18.1575 C5            1 Compound
      34 C5          19.3820    17.2132    16.5447 C5            1 Compound
      35 C5          20.1483    18.4622    15.9959 C5            1 Compound
      36 C5          19.7912    19.8348    16.6503 C5            1 Compound
      37 C5          20.8472    20.9138    16.2778 C5            1 Compound
      38 C5          20.7735    22.2272    17.1094 C5            1 Compound
      39 C5          19.4453    22.9949    16.9896 C5            1 Compound
      40 C5          19.1488    23.5532    15.5803 C5            1 Compound
      41 C5          19.4925    25.0424    15.3713 C5            1 Compound
      42 C5          20.9616    25.4157    15.5288 C5            1 Compound
      43 C5          17.9120    17.0306    15.6965 C5            1 Compound
      44 C0          16.5107    16.1249    15.8922 C0            1 Compound
      45 C5          15.5554    16.8705    16.8324 C5            1 Compound
      46 C5          16.2081    17.0924    18.2042 C5            1 Compound
      47 C5          16.0624    15.8427    19.1325 C5            1 Compound
      48 C5          16.3548    14.4072    18.5766 C5            1 Compound
      49 C5          17.8099    14.0994    18.1721 C5            1 Compound
      50 C5          18.1397    12.5991    18.0009 C5            1 Compound
      51 C5          17.2886    11.8225    16.9889 C5            1 Compound
      52 C5          17.6541    10.3223    17.0211 C5            1 Compound
      53 C5          16.6945     9.4605    16.1883 C5            1 Compound
      54 C5          16.9679     7.9712    16.3475 C5            1 Compound
      55 C5          15.6708    18.4239    18.8049 C5            1 Compound
      56 C5          16.6154    19.2011    19.7546 C5            1 Compound
      57 C5          16.8736    18.6182    21.1454 C5            1 Compound
      58 C5          15.5483    18.3701    21.8611 C5            1 Compound
      59 C5          15.7217    18.0598    23.3480 C5            1 Compound
      60 C5          14.3910    17.6127    23.9839 C5            1 Compound
      61 C5          13.2027    18.5798    23.7866 C5            1 Compound
      62 C5          13.3820    19.9752    24.4122 C5            1 Compound
      63 C5          13.5338    19.9765    25.9428 C5            1 Compound
      64 C5          12.3250    19.3737    26.6618 C5            1 Compound
      65 H6          29.0651    18.8606    25.2678 H6            1 Compound
      66 H6          28.1818    20.3722    25.7071 H6            1 Compound
      67 H6          28.0367    18.9034    26.7331 H6            1 Compound
      68 H6          26.8976    17.6711    24.9114 H6            1 Compound
      69 H6          25.9749    19.1661    25.3362 H6            1 Compound
      70 H6          26.9631    20.3388    23.3254 H6            1 Compound
      71 H6          27.9643    18.8894    23.0040 H6            1 Compound
      72 H6          25.9421    17.5106    22.4983 H6            1 Compound
      73 H6          26.1951    18.8909    21.3698 H6            1 Compound
      74 H6          24.3955    20.2009    22.5005 H6            1 Compound
      75 H6          24.1705    18.8564    23.6540 H6            1 Compound
      76 H6          22.3253    18.8527    22.1621 H6            1 Compound
      77 H6          23.2477    17.3564    21.8151 H6            1 Compound
      78 H6          23.3037    19.9531    20.1783 H6            1 Compound
      79 H6          24.0041    18.4199    19.6022 H6            1 Compound
      80 H6          21.8863    19.2838    18.4576 H6            1 Compound
      81 H6          20.9717    19.1342    19.9865 H6            1 Compound
      82 H6          21.9397    16.7522    18.1874 H6            1 Compound
      83 H6          21.1332    16.6687    19.7740 H6            1 Compound
      84 H6          19.0945    17.8736    18.7443 H6            1 Compound
      85 H6          19.3773    16.1746    18.4319 H6            1 Compound
      86 H6          19.9471    16.3264    16.1814 H6            1 Compound
      87 H6          20.0572    18.5310    14.8908 H6            1 Compound
      88 H6          21.2211    18.2777    16.2161 H6            1 Compound
      89 H6          19.8136    19.7450    17.7507 H6            1 Compound
      90 H6          18.7637    20.1497    16.3743 H6            1 Compound
      91 H6          20.8045    21.1157    15.1908 H6            1 Compound
      92 H6          21.8576    20.4985    16.4857 H6            1 Compound
      93 H6          21.6200    22.8885    16.8260 H6            1 Compound
      94 H6          20.9165    21.9576    18.1807 H6            1 Compound
      95 H6          18.6486    22.2792    17.2737 H6            1 Compound
      96 H6          19.3958    23.8229    17.7321 H6            1 Compound
      97 H6          19.5908    22.9185    14.7872 H6            1 Compound
      98 H6          18.0482    23.5062    15.4451 H6            1 Compound
      99 H6          18.8978    25.6530    16.0858 H6            1 Compound
     100 H6          19.1725    25.3196    14.3428 H6            1 Compound
     101 H6          21.5912    24.8483    14.8139 H6            1 Compound
     102 H6          21.0748    26.5024    15.3161 H6            1 Compound
     103 H6          21.3030    25.2369    16.5684 H6            1 Compound
     104 H6          18.2621    16.7170    14.6882 H6            1 Compound
     105 H6          17.5342    18.0594    15.5248 H6            1 Compound
     106 H6          15.3559    17.8285    16.3014 H6            1 Compound
     107 H6          14.5656    16.3839    16.9748 H6            1 Compound
     108 H6          17.2414    17.2965    18.0157 H6            1 Compound
     109 H6          16.6775    15.9845    20.0379 H6            1 Compound
     110 H6          14.9986    15.8147    19.4509 H6            1 Compound
     111 H6          16.0989    13.7114    19.4060 H6            1 Compound
     112 H6          15.6728    14.1778    17.7323 H6            1 Compound
     113 H6          18.0828    14.6452    17.2499 H6            1 Compound
     114 H6          18.4589    14.4151    19.0098 H6            1 Compound
     115 H6          19.2100    12.5091    17.7066 H6            1 Compound
     116 H6          18.0127    12.1198    18.9936 H6            1 Compound
     117 H6          16.2199    11.9270    17.2733 H6            1 Compound
     118 H6          17.4514    12.2349    15.9746 H6            1 Compound
     119 H6          18.6981    10.1774    16.6637 H6            1 Compound
     120 H6          17.5830     9.9734    18.0730 H6            1 Compound
     121 H6          16.8084     9.6944    15.1159 H6            1 Compound
     122 H6          15.6488     9.6559    16.5169 H6            1 Compound
     123 H6          17.9827     7.7251    15.9720 H6            1 Compound
     124 H6          16.2195     7.3979    15.7579 H6            1 Compound
     125 H6          16.8794     7.6742    17.4133 H6            1 Compound
     126 H6          14.6450    18.2983    19.2088 H6            1 Compound
     127 H6          15.5789    19.1540    17.9697 H6            1 Compound
     128 H6          17.5831    19.3979    19.2493 H6            1 Compound
     129 H6          16.1496    20.1996    19.9128 H6            1 Compound
     130 H6          17.4797    17.6921    21.1025 H6            1 Compound
     131 H6          17.4693    19.3722    21.7062 H6            1 Compound
     132 H6          15.0326    17.5228    21.3626 H6            1 Compound
     133 H6          14.9266    19.2859    21.7702 H6            1 Compound
     134 H6          16.1267    18.9575    23.8642 H6            1 Compound
     135 H6          16.4523    17.2312    23.4747 H6            1 Compound
     136 H6          14.5541    17.4177    25.0640 H6            1 Compound
     137 H6          14.1049    16.6463    23.5147 H6            1 Compound
     138 H6          12.2891    18.1052    24.1964 H6            1 Compound
     139 H6          13.0042    18.7043    22.7018 H6            1 Compound
     140 H6          14.2654    20.4756    23.9612 H6            1 Compound
     141 H6          12.4896    20.5852    24.1507 H6            1 Compound
     142 H6          14.4536    19.4324    26.2422 H6            1 Compound
     143 H6          13.6410    21.0323    26.2734 H6            1 Compound
     144 H6          11.3964    19.9119    26.3745 H6            1 Compound
     145 H6          12.2140    18.2963    26.4227 H6            1 Compound
     146 H6          12.4637    19.4618    27.7590 H6            1 Compound
     147 H4          17.1836    11.7792    12.2714 H4            1 Compound
     148 H4           7.3398    12.6304    11.5436 H4            1 Compound
@<TRIPOS>BOND
       1        2        1 1
       2        8        1 1
       3       44        1 1
       4        3        2 1
       5        6        2 1
       6        4        3 1
       7        7        3 1
       8        5        4 1
       9        6        5 1
      10       16        5 1
      11       12        6 1
      12        8        7 1
      13       11        7 1
      14        9        8 1
      15       10        9 1
      16       13        9 1
      17       11       10 1
      18      147       10 1
      19       15       14 1
      20       22       14 1
      21       16       15 1
      22       23       15 1
      23       17       16 1
      24       18       17 1
      25       21       17 1
      26       19       18 1
      27       20       19 1
      28       21       20 1
      29       22       21 1
      30      148       22 1
      31       25       24 1
      32       65       24 1
      33       66       24 1
      34       67       24 1
      35       26       25 1
      36       68       25 1
      37       69       25 1
      38       27       26 1
      39       70       26 1
      40       71       26 1
      41       28       27 1
      42       72       27 1
      43       73       27 1
      44       29       28 1
      45       74       28 1
      46       75       28 1
      47       30       29 1
      48       76       29 1
      49       77       29 1
      50       31       30 1
      51       78       30 1
      52       79       30 1
      53       32       31 1
      54       80       31 1
      55       81       31 1
      56       33       32 1
      57       82       32 1
      58       83       32 1
      59       34       33 1
      60       84       33 1
      61       85       33 1
      62       35       34 1
      63       43       34 1
      64       86       34 1
      65       36       35 1
      66       87       35 1
      67       88       35 1
      68       37       36 1
      69       89       36 1
      70       90       36 1
      71       38       37 1
      72       91       37 1
      73       92       37 1
      74       39       38 1
      75       93       38 1
      76       94       38 1
      77       40       39 1
      78       95       39 1
      79       96       39 1
      80       41       40 1
      81       97       40 1
      82       98       40 1
      83       42       41 1
      84       99       41 1
      85      100       41 1
      86      101       42 1
      87      102       42 1
      88      103       42 1
      89       44       43 1
      90      104       43 1
      91      105       43 1
      92       45       44 1
      93       46       45 1
      94      106       45 1
      95      107       45 1
      96       47       46 1
      97       55       46 1
      98      108       46 1
      99       48       47 1
     100      109       47 1
     101      110       47 1
     102       49       48 1
     103      111       48 1
     104      112       48 1
     105       50       49 1
     106      113       49 1
     107      114       49 1
     108       51       50 1
     109      115       50 1
     110      116       50 1
     111       52       51 1
     112      117       51 1
     113      118       51 1
     114       53       52 1
     115      119       52 1
     116      120       52 1
     117       54       53 1
     118      121       53 1
     119      122       53 1
     120      123       54 1
     121      124       54 1
     122      125       54 1
     123       56       55 1
     124      126       55 1
     125      127       55 1
     126       57       56 1
     127      128       56 1
     128      129       56 1
     129       58       57 1
     130      130       57 1
     131      131       57 1
     132       59       58 1
     133      132       58 1
     134      133       58 1
     135       60       59 1
     136      134       59 1
     137      135       59 1
     138       61       60 1
     139      136       60 1
     140      137       60 1
     141       62       61 1
     142      138       61 1
     143      139       61 1
     144       63       62 1
     145      140       62 1
     146      141       62 1
     147       64       63 1
     148      142       63 1
     149      143       63 1
     150      144       64 1
     151      145       64 1
     152      146       64 1
@<TRIPOS>SUBSTRUCTURE
       1 Compound        1 RESIDUE    0 **** ROOT      0
